

        *** GPGPU-Sim Simulator Version 3.2.2  [build 0] ***


GPGPU-Sim PTX: simulation mode 0 (can change with PTX_SIM_MODE_FUNC environment variable:
               1=functional simulation only, 0=detailed performance simulator)
GPGPU-Sim: Configuration options:

-network_mode                           1 # Interconnection network mode
-inter_config_file   config_fermi_islip.icnt # Interconnection network config file
-gpgpu_ptx_use_cuobjdump                    1 # Use cuobjdump to extract ptx and sass from binaries
-gpgpu_experimental_lib_support                    0 # Try to extract code from cuda libraries [Broken because of unknown cudaGetExportTable]
-gpgpu_ptx_convert_to_ptxplus                    0 # Convert SASS (native ISA) to ptxplus and run ptxplus
-gpgpu_ptx_force_max_capability                   52 # Force maximum compute capability
-gpgpu_ptx_inst_debug_to_file                    0 # Dump executed instructions' debug information to file
-gpgpu_ptx_inst_debug_file       inst_debug.txt # Executed instructions' debug output file
-gpgpu_ptx_inst_debug_thread_uid                    1 # Thread UID for executed instructions' debug output
-gpgpu_simd_model                       1 # 1 = post-dominator
-gpgpu_shader_core_pipeline              2048:32 # shader core pipeline config, i.e., {<nthread>:<warpsize>}
-gpgpu_tex_cache:l1  16:128:32,L:R:m:N,F:128:4,128:2 # per-shader L1 texture cache  (READ-ONLY) config  {<nsets>:<bsize>:<assoc>,<rep>:<wr>:<alloc>:<wr_alloc>,<mshr>:<N>:<merge>,<mq>:<rf>}
-gpgpu_const_cache:l1 64:64:2,L:R:f:N,A:2:32,4 # per-shader L1 constant memory cache  (READ-ONLY) config  {<nsets>:<bsize>:<assoc>,<rep>:<wr>:<alloc>:<wr_alloc>,<mshr>:<N>:<merge>,<mq>} 
-gpgpu_cache:il1     4:128:4,L:R:f:N,A:2:32,4 # shader L1 instruction cache config  {<nsets>:<bsize>:<assoc>,<rep>:<wr>:<alloc>:<wr_alloc>,<mshr>:<N>:<merge>,<mq>} 
-gpgpu_cache:dl1     32:128:4,L:L:m:N,A:32:8,8 # per-shader L1 data cache config  {<nsets>:<bsize>:<assoc>,<rep>:<wr>:<alloc>:<wr_alloc>,<mshr>:<N>:<merge>,<mq> | none}
-gpgpu_cache:dl1PrefL1                 none # per-shader L1 data cache config  {<nsets>:<bsize>:<assoc>,<rep>:<wr>:<alloc>:<wr_alloc>,<mshr>:<N>:<merge>,<mq> | none}
-gpgpu_cache:dl1PreShared                 none # per-shader L1 data cache config  {<nsets>:<bsize>:<assoc>,<rep>:<wr>:<alloc>:<wr_alloc>,<mshr>:<N>:<merge>,<mq> | none}
-gmem_skip_L1D                          0 # global memory access skip L1D cache (implements -Xptxas -dlcm=cg, default=no skip)
-gpgpu_perfect_mem                      0 # enable perfect memory mode (no cache miss)
-n_regfile_gating_group                    4 # group of lanes that should be read/written together)
-gpgpu_clock_gated_reg_file                    0 # enable clock gated reg file for power calculations
-gpgpu_clock_gated_lanes                    0 # enable clock gated lanes for power calculations
-gpgpu_shader_registers                65536 # Number of registers per shader core. Limits number of concurrent CTAs. (default 8192)
-gpgpu_shader_cta                       8 # Maximum number of concurrent CTAs in shader (default 8)
-gpgpu_n_clusters                       5 # number of processing clusters
-gpgpu_n_cores_per_cluster                    1 # number of simd cores per cluster
-gpgpu_n_cluster_ejection_buffer_size                    8 # number of packets in ejection buffer
-gpgpu_n_ldst_response_buffer_size                    2 # number of response packets in ld/st unit ejection buffer
-gpgpu_shmem_size                   16384 # Size of shared memory per shader core (default 16kB)
-gpgpu_shmem_size                   65536 # Size of shared memory per shader core (default 16kB)
-gpgpu_shmem_size_PrefL1                16384 # Size of shared memory per shader core (default 16kB)
-gpgpu_shmem_size_PrefShared                16384 # Size of shared memory per shader core (default 16kB)
-gpgpu_shmem_num_banks                   32 # Number of banks in the shared memory in each shader core (default 16)
-gpgpu_shmem_limited_broadcast                    0 # Limit shared memory to do one broadcast per cycle (default on)
-gpgpu_shmem_warp_parts                    1 # Number of portions a warp is divided into for shared memory bank conflict check 
-gpgpu_warpdistro_shader                   -1 # Specify which shader core to collect the warp size distribution from
-gpgpu_warp_issue_shader                    0 # Specify which shader core to collect the warp issue distribution from
-gpgpu_local_mem_map                    1 # Mapping from local memory space address to simulated GPU physical address space (default = enabled)
-gpgpu_num_reg_banks                   16 # Number of register banks (default = 8)
-gpgpu_reg_bank_use_warp_id                    0 # Use warp ID in mapping registers to banks (default = off)
-gpgpu_operand_collector_num_units_sp                    6 # number of collector units (default = 4)
-gpgpu_operand_collector_num_units_sfu                    8 # number of collector units (default = 4)
-gpgpu_operand_collector_num_units_mem                    2 # number of collector units (default = 2)
-gpgpu_operand_collector_num_units_gen                    0 # number of collector units (default = 0)
-gpgpu_operand_collector_num_in_ports_sp                    2 # number of collector unit in ports (default = 1)
-gpgpu_operand_collector_num_in_ports_sfu                    1 # number of collector unit in ports (default = 1)
-gpgpu_operand_collector_num_in_ports_mem                    1 # number of collector unit in ports (default = 1)
-gpgpu_operand_collector_num_in_ports_gen                    0 # number of collector unit in ports (default = 0)
-gpgpu_operand_collector_num_out_ports_sp                    2 # number of collector unit in ports (default = 1)
-gpgpu_operand_collector_num_out_ports_sfu                    1 # number of collector unit in ports (default = 1)
-gpgpu_operand_collector_num_out_ports_mem                    1 # number of collector unit in ports (default = 1)
-gpgpu_operand_collector_num_out_ports_gen                    0 # number of collector unit in ports (default = 0)
-gpgpu_coalesce_arch                   13 # Coalescing arch (default = 13, anything else is off for now)
-gpgpu_num_sched_per_core                    4 # Number of warp schedulers per core
-gpgpu_max_insn_issue_per_warp                    2 # Max number of instructions that can be issued per warp in one cycle by scheduler
-gpgpu_simt_core_sim_order                    1 # Select the simulation order of cores in a cluster (0=Fix, 1=Round-Robin)
-gpgpu_pipeline_widths        2,1,1,2,1,1,2 # Pipeline widths ID_OC_SP,ID_OC_SFU,ID_OC_MEM,OC_EX_SP,OC_EX_SFU,OC_EX_MEM,EX_WB
-gpgpu_num_sp_units                     8 # Number of SP units (default=1)
-gpgpu_num_sfu_units                   32 # Number of SF units (default=1)
-gpgpu_num_mem_units                    1 # Number if ldst units (default=1) WARNING: not hooked up to anything
-gpgpu_scheduler                      gto # Scheduler configuration: < lrr | gto | two_level_active > If two_level_active:<num_active_warps>:<inner_prioritization>:<outer_prioritization>For complete list of prioritization values see shader.h enum scheduler_prioritization_typeDefault: gto
-gpgpu_dram_scheduler                    1 # 0 = fifo, 1 = FR-FCFS (defaul)
-gpgpu_dram_partition_queues              8:8:8:8 # i2$:$2d:d2$:$2i
-l2_ideal                               0 # Use a ideal L2 cache that always hit
-gpgpu_cache:dl2     1024:128:8,L:B:m:W,A:32:4,4:0,32 # unified banked L2 data cache config  {<nsets>:<bsize>:<assoc>,<rep>:<wr>:<alloc>:<wr_alloc>,<mshr>:<N>:<merge>,<mq>}
-gpgpu_cache:dl2_texture_only                    0 # L2 cache used for texture only
-gpgpu_n_mem                            2 # number of memory modules (e.g. memory controllers) in gpu
-gpgpu_n_sub_partition_per_mchannel                    1 # number of memory subpartition in each memory module
-gpgpu_n_mem_per_ctrlr                    2 # number of memory chips per memory controller
-gpgpu_memlatency_stat                   14 # track and display latency statistics 0x2 enables MC, 0x4 enables queue logs
-gpgpu_frfcfs_dram_sched_queue_size                   16 # 0 = unlimited (default); # entries per chip
-gpgpu_dram_return_queue_size                  300 # 0 = unlimited (default); # entries per chip
-gpgpu_num_groups                       2 # number of containers (application equal partitions)
-gpgpu_dram_buswidth                   32 # default = 4 bytes (8 bytes per cycle at DDR)
-gpgpu_dram_burst_length                    8 # Burst length of each DRAM request (default = 4 data bus cycle)
-dram_data_command_freq_ratio                    4 # Frequency ratio between DRAM data bus and command bus (default = 2 times, i.e. DDR)
-gpgpu_dram_timing_opt nbk=16:CCD=2:RRD=6:RCD=12:RAS=28:RP=12:RC=40: CL=12:WL=4:CDLR=5:WR=12:nbkgrp=4:CCDL=3:RTPL=2 # DRAM timing parameters = {nbk:tCCD:tRRD:tRCD:tRAS:tRP:tRC:CL:WL:tCDLR:tWR:nbkgrp:tCCDL:tRTPL}
-gpgpu_subarray_timing_opt 16:2:8:12:21:13:34:9:4:5:13:0:0 # DRAM subarray timing parameters = {nsa:sCCD:sRRD:sRCD:sRAS:sRP:sRC:sCL:sWL:sCDLR:sWR:sCCDL:sRTPL}
-rop_latency                          150 # ROP queue latency (default 85)
-dram_latency                         130 # DRAM latency (default 30)
-gpu_char                               0 # gpu char activated
-page_queue_size                     2048 # Size of the page queue
-tlb_flush_enable                       0 # Enabling TLB flush
-get_shader_warp_stat                    0 # Collect number of schedulable warps statistics in shader.cc
-tlb_flush_freq                  10000000 # If TLB flush is enabled, what is the frequency (per L1 cache accesse)
-page_stat_update_cycle               100000 # How often superpage stats are cleared (Default = 100k cycles)
-demotion_check_cycle               100000 # How often demotion is being checked for clearing (Default = 100k cycles)
-l1_tlb_invalidate_latency                   15 # Latency for L1 TLB invalidation (Default = 15 cycles)
-l2_tlb_invalidate_latency                  200 # Latency for L1 TLB invalidation (Default = 200 cycles)
-enable_PCIe                            0 # Enable PCIe latency (otherwise PCIe latency = 0)
-capture_VA                             0 # Tracing Virtual Address from the runs (true/false)
-va_trace_file                   VA.trace # Output file of the virtual address
-va_mask             11111222223333344444000000000000 # Mask of the virtual address for PT walk routine (should match with tlb_levels)
-page_mapping_policy                    1 # VA to PA mapping policy (default is 1 (random), 0 = for debugging
-pw_cache_enable                        0 # Enabling PW cache (0 = false, 1 = true)
-enable_subarray                        0 # Enabling Subarray (0 = false, 1 = true)
-channel_partition                      0 # Enabling Channel Partitioning (0 = false, 1 = policy 1, etc.)
-RC_enabled                             0 # Enable Row Clone
-LISA_enabled                           0 # Enable LISA
-MASA_enabled                           0 # Enabling Subarray (0 = false, 1 = true)
-SALP_enabled                           0 # Enabling Subarray (0 = false, 1 = true)
-interSA_latency                       50 # Inter subarray copy latency
-intraSA_latency                     1000 # Intra subarray copy latency
-lisa_latency                         100 # Intra subarray copy latency using LISA
-RCintraSA_latency                   1000 # Intra subarray copy latency using RC
-RCzero_latency                       100 # Zero a page latency using RC
-zero_latency                        1000 # Zeroing a page latency
-interBank_latency                   1000 # Copy a page across bank
-RCpsm_latency                       1000 # Copy a page across bank using RC psm
-bank_partition                         0 # Enabling Bank Partitioning (0 = false, 1 = policy 1, etc.)
-subarray_partition                     0 # Enabling Subarray Partitioning (0 = false, 1 = policy 1, etc.)
-pw_cache_latency                      10 # PW cache latency
-pw_cache_num_ports                     4 # Number of ports for the PW cache
-tlb_pw_cache_entries                   64 # Number of PW cache entries
-tlb_pw_cache_ways                      8 # Number of PW cache ways
-tlb_replacement_policy                    0 # TLB Replacement policy (0 = LRU (default), 1 = WID based
-tlb_replacement_hash_size                  127 # TLB Replacement policy hashed size for policy 3 and 4
-tlb_replacement_high_threshold                   20 # More than XX WID share this entry
-tlb_core_index                         0 # Scramble coreID to TLB Index bits
-tlb_prefetch                           0 # Enabling TLB Prefetch
-tlb_fixed_latency_enabled                    0 # Enabling TLB Fixed latency instead of consecutive DRAM requests (0=disable, 1=enable (applies to TLB miss))
-tlb_fixed_latency                    100 # If TLB latency is a fixed number, what is the latency (default = 100)
-tlb_L1_flush_cycles                 1000 # How long L1 TLB is blocked during TLB flush (default = 1000)
-tlb_L2_flush_cycles                50000 # How long L2 TLB is blocked during TLB flush (default = 50000)
-tlb_bypass_cache_flush_cycles                 1000 # How long bypass cache in L2 TLB is blocked during TLB flush (default = 1000)
-tlb_prefetch_set                      16 # If prefetch policy = 3, how many prefetch buffer set
-tlb_prefetch_buffer_size                   16 # TLB Prefetch buffer size (per core)
-capture_VA_map                         0 # Tracing Virtual Address from the runs (true/false)
-pt_file                     pt_map.trace # Input page table trace
-epoch_file                   epoch.trace # Input page table trace
-epoch_length                       10000 # Stat collection epoch length
-epoch_length                           1 # Stat collection epoch (true/false), default - true
-tlb_cache_depth                        0 # How many levels is the TLB cache
-tlb_victim_size                       32 # Size of the TLB victim cache
-tlb_victim_size_large                    8 # Size of the TLB victim cache for huge page
-l2_tlb_ways                           16 # L2 TLB ways total (shared)
-l2_tlb_ways_large                      8 # L2 huge page TLB ways total (shared)
-l2data_tlb_way_reset               100000 # When will L2 data TLB way yield to normal data
-tlb_cache_part                         0 # L2 partitioning for TLB
-l2_tlb_entries                      1024 # L2 TLB entires (total entries) (shared)
-l2_tlb_entries_large                  256 # L2 TLB entires for huge page (total entries) (shared)
-tlb_lookup_bypass                      0 # Bypass TLB lookup
-tlb_miss_rate_ratio                    2 # Safety need to avoid ping-ponging between not bypass and bypass TLB lookup
-tlb_stat_resets                     2000 # Reassign tokens every XX
-max_tlb_miss                           5 # Kicks in TLB bypass when TLB miss of (in percentage)
-tlb_bypass_initial_tokens                 1000 # Number of tokens available in TLB bypassing
-tlb_high_prio_level                    2 # At which level tlb gets more priority in DRAM
-tlb_dram_aware                         0 # DRAM treat tlb differently
-dram_switch_factor                   100 # DRAM policy 5, how often apps prioritization is switched (random factor = this_factor/100 ops (bw_factor), default = 100)
-dram_switch_max                     1000 # DRAM policy 5, maximum before DRAM sched switch the app, default = 1000)
-dram_switch_threshold                  100 # DRAM policy 5, threshold before DRAM sched switch the app, default = 100)
-dram_high_prio_chance                  100 # DRAM policy 6, how likely a data request goes into high prio queue (probability = concurrent_request/this number, default = 100)
-dram_scheduling_policy                    0 # DRAM scheduling policy (new for MASK), 0 = FR-FCFS, 1=FCFS
-dram_always_prioritize_app                  100 # DRAM always put request from this app to high priority queue (only for tlb_dram_aware policy 4: first app = 0, second app = 1, etc.
-max_DRAM_high_prio_wait                  100 # DRAM row coalescing for high_prio queue
-max_DRAM_high_prio_combo                    8 # How many consecutive high prio requests are issued
-dram_batch                             0 # Batch high priority DRAM requests (true/false)
-page_transfer_time                  1000 # PCIe latency to transfer a page (default = 1000)
-tlb_size                              64 # Size of TLB per SM
-tlb_size_large                        16 # Size of huge page TLB per SM
-tlb_prio_max_level                     0 # Max level of TLBs that gets high priority
-tlb_bypass_enabled                     0 # Bypass L2 Cache for TLB requests (0 = Disable, 1 = Static policy, 2 = dynamic policy using threshold)
-tlb_bypass_level                       2 # Bypass L2 cache for TLB level starting at N
-data_cache_bypass_threshold                   80 # Threshold used for bypassing L2 data cache for TLB-related requests (in percentage) for TLB L2 data cache bypass policy 2
-enable_page_coalescing                    0 # Enable page coalescing (default = 0)
-enable_compaction                      0 # Enable compaction (default = 0)
-enable_rctest                          0 # If set to 1, randomly send rowclone commands for testing (default = 0)
-compaction_probe_cycle               100000 # How frequency compaction probes DRAM (default = 100000)
-compaction_probe_additional_latency                    0 # Additional latency when probing, for testing purposes (default = 0)
-enable_costly_coalesce                    0 # Enable page coalescing even when there are pages from other app within the coalesce range (default = 0)
-page_coalesce_locality_thres                  101 # Threshold for locality (number of pages touched in the large page range, in percentage) to trigger page coalescing (default = 101 (i.e., impossible to happen)
-page_coalesce_hotness_thres                  100 # Threshold for hotness (how long this page is touched) before trigger coalescing, default = 100
-page_coalesce_lower_thres_offset                   10 # The gap in percentage between coalesce/demotion threshold in percentage, default = 10 percent of the threshold
-tlb_enabled                            1 # TLB and PT_walk enable (true/false)
-page_size_list              2097152:4096 # List of differing page sizes (in bytes) (default = 2MB and 4KB page sizes)
-dram_row_size                         12 # Size of a dram row buffer (factor of 2, 12 means 2^12, default = 4KB)
-DRAM_size                     3221225472 # Size of the DRAM
-DRAM_fragmentation                     0 # Initial fragmentation as percent of the DRAM
-DRAM_fragmentation_pages_per_frame                    1 # Number of pages to add to a fragmented frame
-page_evict_policy                      0 # Page eviction policy (0=app-LRU (default), 1=global-LRU, 2=victim)
-page_partition_policy                    0 # DRAM partitioning policy (default = 0)
-PCIe_queue_size                     2048 # Size of the PCIe queue
-gpgpu_mem_addr_mapping dramid@8;00000000.00000000.00000000.00000000.0000RRRR.RRRRRRRR.BBBCCCCB.CCSSSSSS # mapping memory address to dram model {dramid@<start bit>;<memory address map>}
-gpgpu_mem_address_mask                    1 # 0 = old addressing mask, 1 = new addressing mask, 2 = new add. mask + flipped bank sel and chip sel bits
-gpuwattch_xml_file  gpuwattch_gtx750Ti.xml # GPUWattch XML file
-power_simulation_enabled                    0 # Turn on power simulator (1=On, 0=Off)
-power_per_cycle_dump                    0 # Dump detailed power output each cycle
-power_trace_enabled                    0 # produce a file for the power trace (1=On, 0=Off)
-power_trace_zlevel                     6 # Compression level of the power trace output log (0=no comp, 9=highest)
-steady_power_levels_enabled                    0 # produce a file for the steady power levels (1=On, 0=Off)
-steady_state_definition                  8:4 # allowed deviation:number of samples
-gpgpu_max_cycle                        0 # terminates gpu simulation early (0 = no limit)
-gpgpu_max_insn                1000000000 # terminates gpu simulation early (0 = no limit)
-gpgpu_max_cta                          0 # terminates gpu simulation early (0 = no limit)
-gpgpu_runtime_stat                   500 # display runtime statistics such as dram utilization {<freq>:<flag>}
-liveness_message_freq                    1 # Minimum number of seconds between simulation liveness messages (0 = always print)
-gpgpu_flush_l1_cache                    0 # Flush L1 cache at the end of each kernel call
-gpgpu_flush_l2_cache                    0 # Flush L2 cache at the end of each kernel call
-gpgpu_deadlock_detect                    1 # Stop the simulation at deadlock (1=on (default), 0=off)
-gpgpu_ptx_instruction_classification                    0 # if enabled will classify ptx instruction types per kernel (Max 255 kernels now)
-gpgpu_ptx_sim_mode                     0 # Select between Performance (default) or Functional simulation (1)
-gpgpu_clock_domains 1137.0:1137.0:1137.0:2700.0 # Clock Domain Frequencies in MhZ {<Core Clock>:<ICNT Clock>:<L2 Clock>:<DRAM Clock>}
-gpgpu_max_concurrent_kernel                    8 # maximum kernels that can run concurrently on GPU
-gpgpu_cflog_interval                    0 # Interval between each snapshot in control flow logger
-visualizer_enabled                     0 # Turn on visualizer output (1=On, 0=Off)
-visualizer_outputfile                 NULL # Specifies the output log file for visualizer
-visualizer_zlevel                      6 # Compression level of the visualizer output log (0=no comp, 9=highest)
-trace_enabled                          0 # Turn on traces
-trace_components                    none # comma seperated list of traces to enable. Complete list found in trace_streams.tup. Default none
-trace_sampling_core                    0 # The core which is printed using CORE_DPRINTF. Default 0
-trace_sampling_memory_partition                   -1 # The memory partition which is printed using MEMPART_DPRINTF. Default -1 (i.e. all)
-enable_ptx_file_line_stats                    1 # Turn on PTX source line statistic profiling. (1 = On)
-ptx_line_stats_filename gpgpu_inst_stats.txt # Output file for PTX source line statistics.
-save_embedded_ptx                      0 # saves ptx files embedded in binary as <n>.ptx
-keep                                   0 # keep intermediate files created by GPGPU-Sim when interfacing with external programs
-gpgpu_ptx_save_converted_ptxplus                    0 # Saved converted ptxplus to a file
-ptx_opcode_latency_int       6,12,13,13,210 # Opcode latencies for integers <ADD,MAX,MUL,MAD,DIV>Default 1,1,19,25,145
-ptx_opcode_latency_fp         6,12,6,6,374 # Opcode latencies for single precision floating points <ADD,MAX,MUL,MAD,DIV>Default 1,1,1,1,30
-ptx_opcode_latency_dp         8,19,8,8,330 # Opcode latencies for double precision floating points <ADD,MAX,MUL,MAD,DIV>Default 8,8,8,8,335
-ptx_opcode_initiation_int            1,1,1,1,4 # Opcode initiation intervals for integers <ADD,MAX,MUL,MAD,DIV>Default 1,1,4,4,32
-ptx_opcode_initiation_fp            1,1,1,1,4 # Opcode initiation intervals for single precision floating points <ADD,MAX,MUL,MAD,DIV>Default 1,1,1,1,5
-ptx_opcode_initiation_dp         8,16,8,8,130 # Opcode initiation intervals for double precision floating points <ADD,MAX,MUL,MAD,DIV>Default 8,8,8,8,130
GPGPU-Sim: End of Configuration options:

DRAM Timing Options:
nbk                                    16 # number of banks
CCD                                     2 # column to column delay
RRD                                     6 # minimal delay between activation of rows in different banks
RCD                                    12 # row to column delay
RAS                                    28 # time needed to activate row
RP                                     12 # time needed to precharge (deactivate) row
RC                                     40 # row cycle time
CDLR                                    5 # switching from write to read (changes tWTR)
WR                                     12 # last data-in to row precharge
CL                                     12 # CAS latency
WL                                      4 # Write latency
nbkgrp                                  4 # number of bank groups
CCDL                                    3 # co72fa7fa1e69059d44b520f27b4197651  /home/chen/workspace/UVM/Mosaic/v3.x/pthread_benchmark/gpgpu_ptx_sim__mergedapps
lumn to column delay between accesses to different bank groups
RTPL                                    2 # read to precharge delay between accesses to different bank groups
Total number of memory sub partition = 2
addr_dec_mask[CHIP]  = 0000000000000100 	high:9 low:8
addr_dec_mask[BK]    = 000000000001c200 	high:17 low:9
addr_dec_mask[ROW]   = 000000001ffe0000 	high:29 low:17
addr_dec_mask[COL]   = 0000000000003cff 	high:14 low:0
addr_dec_mask[BURST] = 000000000000003f 	high:6 low:0
addr_dec_mask[SUBARRAY] = 0000000000000000 	high:64 low:0
sub_partition_id_mask = 0000000000000000
Done parsing page_size list, the list is: [3221225472, 2097152, 4096, ]. Number of TLB levels = 4, base_page_size = 4096
Done parsing DRAM optionsGPGPU-Sim uArch: clock freqs: 1137000000.000000:1137000000.000000:1137000000.000000:2700000000.000000
GPGPU-Sim uArch: clock periods: 0.00000000087950747581:0.00000000087950747581:0.00000000087950747581:0.00000000037037037037
Initialing GPGPU MMU. Called by gpgpu-sim entrypoint
Initializing MMU object
In gpgpu-sim entrypoint, done initialing GPGPU MMU, setting mmu in the gpu-sim-config
using DRAM size: 3221225472
using starting DRAM fragmentation: 0
using DRAM fragmentation pages per frame: 1
gpu_malloc starting pointer: 0x80000000
Initializing shader stats
Initializing memory stats
Initializing MMU
Initializing MMU object
Setting up page tables objects
Initializing page_table of level 0
Setting pointers current level 0 to the next page_table of level 1
Initializing page_table of level 1
Setting pointers current level 1 to the next page_table of level 2
Initializing page_table of level 2
Setting pointers current level 2 to the next page_table of level 3
Initializing page_table of level 3
Converting VA bitmask for page_table translation for level = 4, original string = 11111222223333344444000000000000, results = 1f000, mask_string = 00000000000000011111000000000000, pwcache_offset_mask = 1f000, mask_string = 00000000000000011111000000000000
Converting VA bitmask for page_table translation for level = 3, original string = 11111222223333344444000000000000, results = 3ff000, mask_string = 00000000001111111111000000000000, pwcache_offset_mask = 3e0000, mask_string = 00000000001111100000000000000000
Converting VA bitmask for page_table translation for level = 2, original string = 11111222223333344444000000000000, results = 7fff000, mask_string = 00000111111111111111000000000000, pwcache_offset_mask = 7c00000, mask_string = 00000111110000000000000000000000
Converting VA bitmask for page_table translation for level = 1, original string = 11111222223333344444000000000000, results = fffff000, mask_string = 11111111111111111111000000000000, pwcache_offset_mask = f8000000, mask_string = 11111000000000000000000000000000
Done setting up page tables, setting up DRAM physical layout
Done setting up MMU
Sending pending promotion/demotion requests to TLBs
Setting stat object in MMU
Setting stat object in DRAM layout
In gpgpu-sim entrypoint, done initializing gpgpu-sim
In gpgpu-sim entrypoint, done initializing gpgpu-sim stream manager
GPGPU-Sim PTX: __cudaRegisterFatBinary, fat_cubin_handle = 1, filename=LUH/lulesh.cu
self exe links to: /home/chen/workspace/UVM/Mosaic/v3.x/pthread_benchmark/gpgpu_ptx_sim__mergedapps
Running md5sum using "md5sum /home/chen/workspace/UVM/Mosaic/v3.x/pthread_benchmark/gpgpu_ptx_sim__mergedapps "
Running cuobjdump using "$CUDA_INSTALL_PATH/bin/cuobjdump -ptx -elf -sass /home/chen/workspace/UVM/Mosaic/v3.x/pthread_benchmark/gpgpu_ptx_sim__mergedapps > _cuobjdump_complete_output_JJeHaa"
Parsing file _cuobjdump_complete_output_JJeHaa
######### cuobjdump parser ########
## Adding new section ELF
Adding arch: sm_20
Adding identifier: LUH/lulesh.cu
## Adding new section PTX
Adding ptx filename: _cuobjdump_1.ptx
Adding arch: sm_20
Adding identifier: LUH/lulesh.cu
## Adding new section ELF
Adding arch: sm_20
Adding identifier: SPMV/main_spmv.cu
## Adding new section PTX
Adding ptx filename: _cuobjdump_2.ptx
Adding arch: sm_20
Adding identifier: SPMV/main_spmv.cu
## Adding new section ELF
Adding arch: sm_20
Adding identifier: TRD/Triad.cu
## Adding new section PTX
Adding ptx filename: _cuobjdump_3.ptx
Adding arch: sm_20
Adding identifier: TRD/Triad.cu
## Adding new section ELF
Adding arch: sm_20
Adding identifier: SCAN/Scan.cu
## Adding new section PTX
Adding ptx filename: _cuobjdump_4.ptx
Adding arch: sm_20
Adding identifier: SCAN/Scan.cu
## Adding new section ELF
Adding arch: sm_20
Adding identifier: CFD/euler3d.cu
## Adding new section PTX
Adding ptx filename: _cuobjdump_5.ptx
Adding arch: sm_20
Adding identifier: CFD/euler3d.cu
## Adding new section ELF
Adding arch: sm_20
Adding identifier: SC/streamcluster_cuda.cu
## Adding new section PTX
Adding ptx filename: _cuobjdump_6.ptx
Adding arch: sm_20
Adding identifier: SC/streamcluster_cuda.cu
## Adding new section ELF
Adding arch: sm_20
Adding identifier: QTC/QTC.cu
## Adding new section PTX
Adding ptx filename: _cuobjdump_7.ptx
Adding arch: sm_20
Adding identifier: QTC/QTC.cu
## Adding new section ELF
Adding arch: sm_20
Adding identifier: RED/Reduction.cu
## Adding new section PTX
Adding ptx filename: _cuobjdump_8.ptx
Adding arch: sm_20
Adding identifier: RED/Reduction.cu
## Adding new section ELF
Adding arch: sm_20
Adding identifier: RAY/rayTracing.cu
## Adding new section PTX
Adding ptx filename: _cuobjdump_9.ptx
Adding arch: sm_20
Adding identifier: RAY/rayTracing.cu
## Adding new section ELF
Adding arch: sm_20
Adding identifier: LIB/libor.cu
## Adding new section PTX
Adding ptx filename: _cuobjdump_10.ptx
Adding arch: sm_20
Adding identifier: LIB/libor.cu
## Adding new section ELF
Adding arch: sm_20
Adding identifier: CONS/convolutionSeparable.cu
## Adding new section PTX
Adding ptx filename: _cuobjdump_11.ptx
Adding arch: sm_20
Adding identifier: CONS/convolutionSeparable.cu
## Adding new section ELF
Adding arch: sm_20
Adding identifier: BP/backprop_cuda.cu
## Adding new section PTX
Adding ptx filename: _cuobjdump_12.ptx
Adding arch: sm_20
Adding identifier: BP/backprop_cuda.cu
## Adding new section ELF
Adding arch: sm_20
Adding identifier: SAD/main_sad.cu
## Adding new section PTX
Adding ptx filename: _cuobjdump_13.ptx
Adding arch: sm_20
Adding identifier: SAD/main_sad.cu
## Adding new section ELF
Adding arch: sm_20
Adding identifier: LUD/cuda/lud.cu
## Adding new section PTX
Adding ptx filename: _cuobjdump_14.ptx
Adding arch: sm_20
Adding identifier: LUD/cuda/lud.cu
## Adding new section ELF
Adding arch: sm_20
Adding identifier: SRAD/main_srad.cu
## Adding new section PTX
Adding ptx filename: _cuobjdump_15.ptx
Adding arch: sm_20
Adding identifier: SRAD/main_srad.cu
## Adding new section ELF
Adding arch: sm_20
Adding identifier: FFT/fft.cu
## Adding new section PTX
Adding ptx filename: _cuobjdump_16.ptx
Adding arch: sm_20
Adding identifier: FFT/fft.cu
## Adding new section ELF
Adding arch: sm_20
Adding identifier: LPS/laplace3d.cu
## Adding new section PTX
Adding ptx filename: _cuobjdump_17.ptx
Adding arch: sm_20
Adding identifier: LPS/laplace3d.cu
## Adding new section ELF
Adding arch: sm_20
Adding identifier: FWT/fastWalshTransform.cu
## Adding new section PTX
Adding ptx filename: _cuobjdump_18.ptx
Adding arch: sm_20
Adding identifier: FWT/fastWalshTransform.cu
## Adding new section ELF
Adding arch: sm_20
Adding identifier: NN/NN.cu
## Adding new section PTX
Adding ptx filename: _cuobjdump_19.ptx
Adding arch: sm_20
Adding identifier: NN/NN.cu
## Adding new section ELF
Adding arch: sm_20
Adding identifier: NW/needle.cu
## Adding new section PTX
Adding ptx filename: _cuobjdump_20.ptx
Adding arch: sm_20
Adding identifier: NW/needle.cu
## Adding new section ELF
Adding arch: sm_20
Adding identifier: SCP/scalarProd.cu
## Adding new section PTX
Adding ptx filename: _cuobjdump_21.ptx
Adding arch: sm_20
Adding identifier: SCP/scalarProd.cu
## Adding new section ELF
Adding arch: sm_20
Adding identifier: JPEG/dct8x8.cu
## Adding new section PTX
Adding ptx filename: _cuobjdump_22.ptx
Adding arch: sm_20
Adding identifier: JPEG/dct8x8.cu
## Adding new section ELF
Adding arch: sm_20
Adding identifier: BFS2/bfs.cu
## Adding new section PTX
Adding ptx filename: _cuobjdump_23.ptx
Adding arch: sm_20
Adding identifier: BFS2/bfs.cu
## Adding new section ELF
Adding arch: sm_20
Adding identifier: GUPS/CudaRandomAccess.cu
## Adding new section PTX
Adding ptx filename: _cuobjdump_24.ptx
Adding arch: sm_20
Adding identifier: GUPS/CudaRandomAccess.cu
## Adding new section ELF
Adding arch: sm_20
Adding identifier: HISTO/histogram256.cu
## Adding new section PTX
Adding ptx filename: _cuobjdump_25.ptx
Adding arch: sm_20
Adding identifier: HISTO/histogram256.cu
## Adding new section ELF
Adding arch: sm_20
Adding identifier: 3DS/threeDS.cu
## Adding new section PTX
Adding ptx filename: _cuobjdump_26.ptx
Adding arch: sm_20
Adding identifier: 3DS/threeDS.cu
## Adding new section ELF
Adding arch: sm_20
Adding identifier: MM/mm.cu
## Adding new section PTX
Adding ptx filename: _cuobjdump_27.ptx
Adding arch: sm_20
Adding identifier: MM/mm.cu
## Adding new section ELF
Adding arch: sm_20
Adding identifier: HS/hotspot.cu
## Adding new section PTX
Adding ptx filename: _cuobjdump_28.ptx
Adding arch: sm_20
Adding identifier: HS/hotspot.cu
## Adding new section ELF
Adding arch: sm_20
Adding identifier: BLK/BlackScholes.cu
## Adding new section PTX
Adding ptx filename: _cuobjdump_29.ptx
Adding arch: sm_20
Adding identifier: BLK/BlackScholes.cu
Done parsing!!!
GPGPU-Sim PTX: __cudaRegisterFunction _Z34CalcHydroConstraintForElems_kernelidPiPdS0_ : hostFun 0x0x4300ad, fat_cubin_handle = 1
GPGPU-Sim PTX: allocating stack frame region for .param "__cudaparmf1__Z9reduceMinIdLi256EEvPT_i" from 0x0 to 0x8
GPGPU-Sim PTX: allocating stack frame region for .param "__cudaparmf2__Z9reduceMinIdLi256EEvPT_i" from 0x8 to 0xc
GPGPU-Sim PTX: instruction assembly for function '_Z9reduceMinIdLi256EEvPT_i'...   done.
GPGPU-Sim PTX: finding reconvergence points for '_Z9reduceMinIdLi256EEvPT_i'...
GPGPU-Sim PTX: Finding dominators for '_Z9reduceMinIdLi256EEvPT_i'...
GPGPU-Sim PTX: Finding immediate dominators for '_Z9reduceMinIdLi256EEvPT_i'...
GPGPU-Sim PTX: Finding postdominators for '_Z9reduceMinIdLi256EEvPT_i'...
GPGPU-Sim PTX: Finding immediate postdominators for '_Z9reduceMinIdLi256EEvPT_i'...
GPGPU-Sim PTX: pre-decoding instructions for '_Z9reduceMinIdLi256EEvPT_i'...
GPGPU-Sim PTX: reconvergence points for _Z9reduceMinIdLi256EEvPT_i...
GPGPU-Sim PTX:  1 (potential) branch divergence @  PC=0x030 (_1.ptx:68) @%p1 bra $Lt_0_37378;
GPGPU-Sim PTX:    immediate post dominator      @  PC=0x070 (_1.ptx:79) bar.sync 0;
GPGPU-Sim PTX:  2 (potential) branch divergence @  PC=0x088 (_1.ptx:82) @%p2 bra $Lt_0_37890;
GPGPU-Sim PTX:    immediate post dominator      @  PC=0x0c8 (_1.ptx:93) bar.sync 0;
GPGPU-Sim PTX:  3 (potential) branch divergence @  PC=0x0e0 (_1.ptx:96) @%p3 bra $Lt_0_38402;
GPGPU-Sim PTX:    immediate post dominator      @  PC=0x280 (_1.ptx:168) ret;
GPGPU-Sim PTX:  4 (potential) branch divergence @  PC=0x118 (_1.ptx:103) @!%p4 bra $Lt_0_39170;
GPGPU-Sim PTX:    immediate post dominator      @  PC=0x138 (_1.ptx:110) st.volatile.f64 [%rd5+0], %fd9;
GPGPU-Sim PTX:  5 (potential) branch divergence @  PC=0x128 (_1.ptx:106) bra.uni $Lt_0_38914;
GPGPU-Sim PTX:    immediate post dominator      @  PC=0x138 (_1.ptx:110) st.volatile.f64 [%rd5+0], %fd9;
GPGPU-Sim PTX:  6 (potential) branch divergence @  PC=0x158 (_1.ptx:114) @!%p5 bra $Lt_0_39682;
GPGPU-Sim PTX:    immediate post dominator      @  PC=0x178 (_1.ptx:121) st.volatile.f64 [%rd5+0], %fd12;
GPGPU-Sim PTX:  7 (potential) branch divergence @  PC=0x168 (_1.ptx:117) bra.uni $Lt_0_39426;
GPGPU-Sim PTX:    immediate post dominator      @  PC=0x178 (_1.ptx:121) st.volatile.f64 [%rd5+0], %fd12;
GPGPU-Sim PTX:  8 (potential) branch divergence @  PC=0x198 (_1.ptx:125) @!%p6 bra $Lt_0_40194;
GPGPU-Sim PTX:    immediate post dominator      @  PC=0x1b8 (_1.ptx:132) st.volatile.f64 [%rd5+0], %fd15;
GPGPU-Sim PTX:  9 (potential) branch divergence @  PC=0x1a8 (_1.ptx:128) bra.uni $Lt_0_39938;
GPGPU-Sim PTX:    immediate post dominator      @  PC=0x1b8 (_1.ptx:132) st.volatile.f64 [%rd5+0], %fd15;
GPGPU-Sim PTX: 10 (potential) branch divergence @  PC=0x1d8 (_1.ptx:136) @!%p7 bra $Lt_0_40706;
GPGPU-Sim PTX:    immediate post dominator      @  PC=0x1f8 (_1.ptx:143) st.volatile.f64 [%rd5+0], %fd18;
GPGPU-Sim PTX: 11 (potential) branch divergence @  PC=0x1e8 (_1.ptx:139) bra.uni $Lt_0_40450;
GPGPU-Sim PTX:    immediate post dominator      @  PC=0x1f8 (_1.ptx:143) st.volatile.f64 [%rd5+0], %fd18;
GPGPU-Sim PTX: 12 (potential) branch divergence @  PC=0x218 (_1.ptx:147) @!%p8 bra $Lt_0_41218;
GPGPU-Sim PTX:    immediate post dominator      @  PC=0x238 (_1.ptx:154) st.volatile.f64 [%rd5+0], %fd21;
GPGPU-Sim PTX: 13 (potential) branch divergence @  PC=0x228 (_1.ptx:150) bra.uni $Lt_0_40962;
GPGPU-Sim PTX:    immediate post dominator      @  PC=0x238 (_1.ptx:154) st.volatile.f64 [%rd5+0], %fd21;
GPGPU-Sim PTX: 14 (potential) branch divergence @  PC=0x258 (_1.ptx:158) @!%p9 bra $Lt_0_41730;
GPGPU-Sim PTX:    immediate post dominator      @  PC=0x278 (_1.ptx:165) st.volatile.f64 [%rd5+0], %fd24;
GPGPU-Sim PTX: 15 (potential) branch divergence @  PC=0x268 (_1.ptx:161) bra.uni $Lt_0_41474;
GPGPU-Sim PTX:    immediate post dominator      @  PC=0x278 (_1.ptx:165) st.volatile.f64 [%rd5+0], %fd24;
GPGPU-Sim PTX: ... end of reconvergence points for _Z9reduceMinIdLi256EEvPT_i
GPGPU-Sim PTX: ... done pre-decoding instructions for '_Z9reduceMinIdLi256EEvPT_i'.
GPGPU-Sim PTX: instruction assembly for function '_Z30InitStressTermsForElems_kerneliPdS_S_S_S_'...   done.
GPGPU-Sim PTX: finding reconvergence points for '_Z30InitStressTermsForElems_kerneliPdS_S_S_S_'...
GPGPU-Sim PTX: Finding dominators for '_Z30InitStressTermsForElems_kerneliPdS_S_S_S_'...
GPGPU-Sim PTX: Finding immediate dominators for '_Z30InitStressTermsForElems_kerneliPdS_S_S_S_'...
GPGPU-Sim PTX: Finding postdominators for '_Z30InitStressTermsForElems_kerneliPdS_S_S_S_'...
GPGPU-Sim PTX: Finding immediate postdominators for '_Z30InitStressTermsForElems_kerneliPdS_S_S_S_'...
GPGPU-Sim PTX: pre-decoding instructions for '_Z30InitStressTermsForElems_kerneliPdS_S_S_S_'...
GPGPU-Sim PTX: reconvergence points for _Z30InitStressTermsForElems_kerneliPdS_S_S_S_...
GPGPU-Sim PTX:  1 (potential) branch divergence @  PC=0x2c0 (_1.ptx:193) @%p1 bra $Lt_1_1026;
GPGPU-Sim PTX:    immediate post dominator      @  PC=0x360 (_1.ptx:216) exit;
GPGPU-Sim PTX: ... end of reconvergence points for _Z30InitStressTermsForElems_kerneliPdS_S_S_S_
GPGPU-Sim PTX: ... done pre-decoding instructions for '_Z30InitStressTermsForElems_kerneliPdS_S_S_S_'.
GPGPU-Sim PTX: instruction assembly for function '_Z30IntegrateStressForElems_kerneliPiPdS0_S0_S0_S0_S0_S0_S0_S0_S0_'...   done.
GPGPU-Sim PTX: finding reconvergence points for '_Z30IntegrateStressForElems_kerneliPiPdS0_S0_S0_S0_S0_S0_S0_S0_S0_'...
GPGPU-Sim PTX: Finding dominators for '_Z30IntegrateStressForElems_kerneliPiPdS0_S0_S0_S0_S0_S0_S0_S0_S0_'...
GPGPU-Sim PTX: Finding immediate dominators for '_Z30IntegrateStressForElems_kerneliPiPdS0_S0_S0_S0_S0_S0_S0_S0_S0_'...
GPGPU-Sim PTX: Finding postdominators for '_Z30IntegrateStressForElems_kerneliPiPdS0_S0_S0_S0_S0_S0_S0_S0_S0_'...
GPGPU-Sim PTX: Finding immediate postdominators for '_Z30IntegrateStressForElems_kerneliPiPdS0_S0_S0_S0_S0_S0_S0_S0_S0_'...
GPGPU-Sim PTX: pre-decoding instructions for '_Z30IntegrateStressForElems_kerneliPiPdS0_S0_S0_S0_S0_S0_S0_S0_S0_'...
GPGPU-Sim PTX: reconvergence points for _Z30IntegrateStressForElems_kerneliPiPdS0_S0_S0_S0_S0_S0_S0_S0_S0_...
GPGPU-Sim PTX:  1 (potential) branch divergence @  PC=0x3a0 (_1.ptx:251) @%p1 bra $Lt_2_3074;
GPGPU-Sim PTX:    immediate post dominator      @  PC=0x1de8 (_1.ptx:1158) exit;
GPGPU-Sim PTX: ... end of reconvergence points for _Z30IntegrateStressForElems_kerneliPiPdS0_S0_S0_S0_S0_S0_S0_S0_S0_
GPGPU-Sim PTX: ... done pre-decoding instructions for '_Z30IntegrateStressForElems_kerneliPiPdS0_S0_S0_S0_S0_S0_S0_S0_S0_'.
GPGPU-Sim PTX: instruction assembly for function '_Z29AddNodeForcesFromElems_kerneliPiS_PdS0_S0_S0_S0_S0_'...   done.
GPGPU-Sim PTX: finding reconvergence points for '_Z29AddNodeForcesFromElems_kerneliPiS_PdS0_S0_S0_S0_S0_'...
GPGPU-Sim PTX: Finding dominators for '_Z29AddNodeForcesFromElems_kerneliPiS_PdS0_S0_S0_S0_S0_'...
GPGPU-Sim PTX: Finding immediate dominators for '_Z29AddNodeForcesFromElems_kerneliPiS_PdS0_S0_S0_S0_S0_'...
GPGPU-Sim PTX: Finding postdominators for '_Z29AddNodeForcesFromElems_kerneliPiS_PdS0_S0_S0_S0_S0_'...
GPGPU-Sim PTX: Finding immediate postdominators for '_Z29AddNodeForcesFromElems_kerneliPiS_PdS0_S0_S0_S0_S0_'...
GPGPU-Sim PTX: pre-decoding instructions for '_Z29AddNodeForcesFromElems_kerneliPiS_PdS0_S0_S0_S0_S0_'...
GPGPU-Sim PTX: reconvergence points for _Z29AddNodeForcesFromElems_kerneliPiS_PdS0_S0_S0_S0_S0_...
GPGPU-Sim PTX:  1 (potential) branch divergence @  PC=0x1e28 (_1.ptx:1186) @%p1 bra $Lt_3_2050;
GPGPU-Sim PTX:    immediate post dominator      @  PC=0x1fc8 (_1.ptx:1248) exit;
GPGPU-Sim PTX:  2 (potential) branch divergence @  PC=0x1e68 (_1.ptx:1195) @%p2 bra $Lt_3_3586;
GPGPU-Sim PTX:    immediate post dominator      @  PC=0x1f78 (_1.ptx:1236) mul.lo.u64 %rd17, %rd1, 8;
GPGPU-Sim PTX:  3 (potential) branch divergence @  PC=0x1f50 (_1.ptx:1228) @%p3 bra $Lt_3_3074;
GPGPU-Sim PTX:    immediate post dominator      @  PC=0x1f58 (_1.ptx:1229) bra.uni $Lt_3_2562;
GPGPU-Sim PTX:  4 (potential) branch divergence @  PC=0x1f58 (_1.ptx:1229) bra.uni $Lt_3_2562;
GPGPU-Sim PTX:    immediate post dominator      @  PC=0x1f78 (_1.ptx:1236) mul.lo.u64 %rd17, %rd1, 8;
GPGPU-Sim PTX: ... end of reconvergence points for _Z29AddNodeForcesFromElems_kerneliPiS_PdS0_S0_S0_S0_S0_
GPGPU-Sim PTX: ... done pre-decoding instructions for '_Z29AddNodeForcesFromElems_kerneliPiS_PdS0_S0_S0_S0_S0_'.
GPGPU-Sim PTX: instruction assembly for function '_Z30AddNodeForcesFromElems2_kerneliPiS_PdS0_S0_S0_S0_S0_'...   done.
GPGPU-Sim PTX: finding reconvergence points for '_Z30AddNodeForcesFromElems2_kerneliPiS_PdS0_S0_S0_S0_S0_'...
GPGPU-Sim PTX: Finding dominators for '_Z30AddNodeForcesFromElems2_kerneliPiS_PdS0_S0_S0_S0_S0_'...
GPGPU-Sim PTX: Finding immediate dominators for '_Z30AddNodeForcesFromElems2_kerneliPiS_PdS0_S0_S0_S0_S0_'...
GPGPU-Sim PTX: Finding postdominators for '_Z30AddNodeForcesFromElems2_kerneliPiS_PdS0_S0_S0_S0_S0_'...
GPGPU-Sim PTX: Finding immediate postdominators for '_Z30AddNodeForcesFromElems2_kerneliPiS_PdS0_S0_S0_S0_S0_'...
GPGPU-Sim PTX: pre-decoding instructions for '_Z30AddNodeForcesFromElems2_kerneliPiS_PdS0_S0_S0_S0_S0_'...
GPGPU-Sim PTX: reconvergence points for _Z30AddNodeForcesFromElems2_kerneliPiS_PdS0_S0_S0_S0_S0_...
GPGPU-Sim PTX:  1 (potential) branch divergence @  PC=0x2008 (_1.ptx:1276) @%p1 bra $Lt_4_2050;
GPGPU-Sim PTX:    immediate post dominator      @  PC=0x21d8 (_1.ptx:1344) exit;
GPGPU-Sim PTX:  2 (potential) branch divergence @  PC=0x2048 (_1.ptx:1285) @%p2 bra $Lt_4_3586;
GPGPU-Sim PTX:    immediate post dominator      @  PC=0x2158 (_1.ptx:1326) mul.lo.u64 %rd17, %rd1, 8;
GPGPU-Sim PTX:  3 (potential) branch divergence @  PC=0x2130 (_1.ptx:1318) @%p3 bra $Lt_4_3074;
GPGPU-Sim PTX:    immediate post dominator      @  PC=0x2138 (_1.ptx:1319) bra.uni $Lt_4_2562;
GPGPU-Sim PTX:  4 (potential) branch divergence @  PC=0x2138 (_1.ptx:1319) bra.uni $Lt_4_2562;
GPGPU-Sim PTX:    immediate post dominator      @  PC=0x2158 (_1.ptx:1326) mul.lo.u64 %rd17, %rd1, 8;
GPGPU-Sim PTX: ... end of reconvergence points for _Z30AddNodeForcesFromElems2_kerneliPiS_PdS0_S0_S0_S0_S0_
GPGPU-Sim PTX: ... done pre-decoding instructions for '_Z30AddNodeForcesFromElems2_kerneliPiS_PdS0_S0_S0_S0_S0_'.
GPGPU-Sim PTX: allocating shared region for "shm_array" from 0x0 to 0x800 (shared memory space)
GPGPU-Sim PTX: instruction assembly for function '_Z35CalcFBHourglassForceForElems_kernelPdS_S_S_S_S_S_diPiS_S_S_S_S_S_S_S_'...   done.
GPGPU-Sim PTX: finding reconvergence points for '_Z35CalcFBHourglassForceForElems_kernelPdS_S_S_S_S_S_diPiS_S_S_S_S_S_S_S_'...
GPGPU-Sim PTX: Finding dominators for '_Z35CalcFBHourglassForceForElems_kernelPdS_S_S_S_S_S_diPiS_S_S_S_S_S_S_S_'...
GPGPU-Sim PTX: Finding immediate dominators for '_Z35CalcFBHourglassForceForElems_kernelPdS_S_S_S_S_S_diPiS_S_S_S_S_S_S_S_'...
GPGPU-Sim PTX: Finding postdominators for '_Z35CalcFBHourglassForceForElems_kernelPdS_S_S_S_S_S_diPiS_S_S_S_S_S_S_S_'...
GPGPU-Sim PTX: Finding immediate postdominators for '_Z35CalcFBHourglassForceForElems_kernelPdS_S_S_S_S_S_diPiS_S_S_S_S_S_S_S_'...
GPGPU-Sim PTX: pre-decoding instructions for '_Z35CalcFBHourglassForceForElems_kernelPdS_S_S_S_S_S_diPiS_S_S_S_S_S_S_S_'...
GPGPU-Sim PTX: reconvergence points for _Z35CalcFBHourglassForceForElems_kernelPdS_S_S_S_S_S_diPiS_S_S_S_S_S_S_S_...
GPGPU-Sim PTX:  1 (potential) branch divergence @  PC=0x2348 (_1.ptx:1426) @%p2 bra $Lt_5_49410;
GPGPU-Sim PTX:    immediate post dominator      @  PC=0x2390 (_1.ptx:1441) bar.sync 0;
GPGPU-Sim PTX:  2 (potential) branch divergence @  PC=0x2378 (_1.ptx:1434) bra.uni $Lt_5_49154;
GPGPU-Sim PTX:    immediate post dominator      @  PC=0x2390 (_1.ptx:1441) bar.sync 0;
GPGPU-Sim PTX:  3 (potential) branch divergence @  PC=0x23d8 (_1.ptx:1450) @!%p3 bra $Lt_5_49666;
GPGPU-Sim PTX:    immediate post dominator      @  PC=0x2400 (_1.ptx:1456) bar.sync 0;
GPGPU-Sim PTX:  4 (potential) branch divergence @  PC=0x2418 (_1.ptx:1459) @!%p4 bra $Lt_5_50178;
GPGPU-Sim PTX:    immediate post dominator      @  PC=0x2440 (_1.ptx:1465) bar.sync 0;
GPGPU-Sim PTX:  5 (potential) branch divergence @  PC=0x2458 (_1.ptx:1468) @!%p5 bra $Lt_5_50690;
GPGPU-Sim PTX:    immediate post dominator      @  PC=0x2480 (_1.ptx:1474) bar.sync 0;
GPGPU-Sim PTX:  6 (potential) branch divergence @  PC=0x24c0 (_1.ptx:1483) @!%p3 bra $Lt_5_51202;
GPGPU-Sim PTX:    immediate post dominator      @  PC=0x24e8 (_1.ptx:1489) bar.sync 0;
GPGPU-Sim PTX:  7 (potential) branch divergence @  PC=0x24f0 (_1.ptx:1490) @!%p4 bra $Lt_5_51714;
GPGPU-Sim PTX:    immediate post dominator      @  PC=0x2518 (_1.ptx:1496) bar.sync 0;
GPGPU-Sim PTX:  8 (potential) branch divergence @  PC=0x2520 (_1.ptx:1497) @!%p5 bra $Lt_5_52226;
GPGPU-Sim PTX:    immediate post dominator      @  PC=0x2548 (_1.ptx:1503) bar.sync 0;
GPGPU-Sim PTX:  9 (potential) branch divergence @  PC=0x2570 (_1.ptx:1509) @!%p3 bra $Lt_5_52738;
GPGPU-Sim PTX:    immediate post dominator      @  PC=0x2598 (_1.ptx:1515) bar.sync 0;
GPGPU-Sim PTX: 10 (potential) branch divergence @  PC=0x25a0 (_1.ptx:1516) @!%p4 bra $Lt_5_53250;
GPGPU-Sim PTX:    immediate post dominator      @  PC=0x25c8 (_1.ptx:1522) bar.sync 0;
GPGPU-Sim PTX: 11 (potential) branch divergence @  PC=0x25d0 (_1.ptx:1523) @!%p5 bra $Lt_5_53762;
GPGPU-Sim PTX:    immediate post dominator      @  PC=0x25f8 (_1.ptx:1529) bar.sync 0;
GPGPU-Sim PTX: 12 (potential) branch divergence @  PC=0x26c0 (_1.ptx:1556) @%p7 bra $Lt_5_54530;
GPGPU-Sim PTX:    immediate post dominator      @  PC=0x2708 (_1.ptx:1571) bar.sync 0;
GPGPU-Sim PTX: 13 (potential) branch divergence @  PC=0x26f0 (_1.ptx:1564) bra.uni $Lt_5_54274;
GPGPU-Sim PTX:    immediate post dominator      @  PC=0x2708 (_1.ptx:1571) bar.sync 0;
GPGPU-Sim PTX: 14 (potential) branch divergence @  PC=0x2720 (_1.ptx:1574) @!%p3 bra $Lt_5_54786;
GPGPU-Sim PTX:    immediate post dominator      @  PC=0x2748 (_1.ptx:1580) bar.sync 0;
GPGPU-Sim PTX: 15 (potential) branch divergence @  PC=0x2750 (_1.ptx:1581) @!%p4 bra $Lt_5_55298;
GPGPU-Sim PTX:    immediate post dominator      @  PC=0x2778 (_1.ptx:1587) bar.sync 0;
GPGPU-Sim PTX: 16 (potential) branch divergence @  PC=0x2780 (_1.ptx:1588) @!%p5 bra $Lt_5_55810;
GPGPU-Sim PTX:    immediate post dominator      @  PC=0x27a8 (_1.ptx:1594) bar.sync 0;
GPGPU-Sim PTX: 17 (potential) branch divergence @  PC=0x27d0 (_1.ptx:1600) @!%p3 bra $Lt_5_56322;
GPGPU-Sim PTX:    immediate post dominator      @  PC=0x27f8 (_1.ptx:1606) bar.sync 0;
GPGPU-Sim PTX: 18 (potential) branch divergence @  PC=0x2800 (_1.ptx:1607) @!%p4 bra $Lt_5_56834;
GPGPU-Sim PTX:    immediate post dominator      @  PC=0x2828 (_1.ptx:1613) bar.sync 0;
GPGPU-Sim PTX: 19 (potential) branch divergence @  PC=0x2830 (_1.ptx:1614) @!%p5 bra $Lt_5_57346;
GPGPU-Sim PTX:    immediate post dominator      @  PC=0x2858 (_1.ptx:1620) bar.sync 0;
GPGPU-Sim PTX: 20 (potential) branch divergence @  PC=0x2880 (_1.ptx:1626) @!%p3 bra $Lt_5_57858;
GPGPU-Sim PTX:    immediate post dominator      @  PC=0x28a8 (_1.ptx:1632) bar.sync 0;
GPGPU-Sim PTX: 21 (potential) branch divergence @  PC=0x28b0 (_1.ptx:1633) @!%p4 bra $Lt_5_58370;
GPGPU-Sim PTX:    immediate post dominator      @  PC=0x28d8 (_1.ptx:1639) bar.sync 0;
GPGPU-Sim PTX: 22 (potential) branch divergence @  PC=0x28e0 (_1.ptx:1640) @!%p5 bra $Lt_5_58882;
GPGPU-Sim PTX:    immediate post dominator      @  PC=0x2908 (_1.ptx:1646) bar.sync 0;
GPGPU-Sim PTX: 23 (potential) branch divergence @  PC=0x2970 (_1.ptx:1662) @%p8 bra $Lt_5_87810;
GPGPU-Sim PTX:    immediate post dominator      @  PC=0x29f0 (_1.ptx:1686) bar.sync 0;
GPGPU-Sim PTX: 24 (potential) branch divergence @  PC=0x2988 (_1.ptx:1665) @%p9 bra $Lt_5_87810;
GPGPU-Sim PTX:    immediate post dominator      @  PC=0x29f0 (_1.ptx:1686) bar.sync 0;
GPGPU-Sim PTX: 25 (potential) branch divergence @  PC=0x29a0 (_1.ptx:1668) @%p10 bra $Lt_5_87810;
GPGPU-Sim PTX:    immediate post dominator      @  PC=0x29f0 (_1.ptx:1686) bar.sync 0;
GPGPU-Sim PTX: 26 (potential) branch divergence @  PC=0x29a8 (_1.ptx:1669) @!%p6 bra $L_5_46850;
GPGPU-Sim PTX:    immediate post dominator      @  PC=0x29f0 (_1.ptx:1686) bar.sync 0;
GPGPU-Sim PTX: 27 (potential) branch divergence @  PC=0x29d8 (_1.ptx:1679) bra.uni $L_5_46594;
GPGPU-Sim PTX:    immediate post dominator      @  PC=0x29f0 (_1.ptx:1686) bar.sync 0;
GPGPU-Sim PTX: 28 (potential) branch divergence @  PC=0x2a08 (_1.ptx:1689) @!%p3 bra $Lt_5_59394;
GPGPU-Sim PTX:    immediate post dominator      @  PC=0x2a30 (_1.ptx:1695) bar.sync 0;
GPGPU-Sim PTX: 29 (potential) branch divergence @  PC=0x2a38 (_1.ptx:1696) @!%p4 bra $Lt_5_59906;
GPGPU-Sim PTX:    immediate post dominator      @  PC=0x2a60 (_1.ptx:1702) bar.sync 0;
GPGPU-Sim PTX: 30 (potential) branch divergence @  PC=0x2a68 (_1.ptx:1703) @!%p5 bra $Lt_5_60418;
GPGPU-Sim PTX:    immediate post dominator      @  PC=0x2a90 (_1.ptx:1709) bar.sync 0;
GPGPU-Sim PTX: 31 (potential) branch divergence @  PC=0x2ab8 (_1.ptx:1715) @!%p3 bra $Lt_5_60930;
GPGPU-Sim PTX:    immediate post dominator      @  PC=0x2ae0 (_1.ptx:1721) bar.sync 0;
GPGPU-Sim PTX: 32 (potential) branch divergence @  PC=0x2ae8 (_1.ptx:1722) @!%p4 bra $Lt_5_61442;
GPGPU-Sim PTX:    immediate post dominator      @  PC=0x2b10 (_1.ptx:1728) bar.sync 0;
GPGPU-Sim PTX: 33 (potential) branch divergence @  PC=0x2b18 (_1.ptx:1729) @!%p5 bra $Lt_5_61954;
GPGPU-Sim PTX:    immediate post dominator      @  PC=0x2b40 (_1.ptx:1735) bar.sync 0;
GPGPU-Sim PTX: 34 (potential) branch divergence @  PC=0x2b68 (_1.ptx:1741) @!%p3 bra $Lt_5_62466;
GPGPU-Sim PTX:    immediate post dominator      @  PC=0x2b90 (_1.ptx:1747) bar.sync 0;
GPGPU-Sim PTX: 35 (potential) branch divergence @  PC=0x2b98 (_1.ptx:1748) @!%p4 bra $Lt_5_62978;
GPGPU-Sim PTX:    immediate post dominator      @  PC=0x2bc0 (_1.ptx:1754) bar.sync 0;
GPGPU-Sim PTX: 36 (potential) branch divergence @  PC=0x2bc8 (_1.ptx:1755) @!%p5 bra $Lt_5_63490;
GPGPU-Sim PTX:    immediate post dominator      @  PC=0x2bf0 (_1.ptx:1761) bar.sync 0;
GPGPU-Sim PTX: 37 (potential) branch divergence @  PC=0x2c58 (_1.ptx:1777) @%p11 bra $Lt_5_88578;
GPGPU-Sim PTX:    immediate post dominator      @  PC=0x2cd8 (_1.ptx:1801) bar.sync 0;
GPGPU-Sim PTX: 38 (potential) branch divergence @  PC=0x2c70 (_1.ptx:1780) @%p12 bra $Lt_5_88578;
GPGPU-Sim PTX:    immediate post dominator      @  PC=0x2cd8 (_1.ptx:1801) bar.sync 0;
GPGPU-Sim PTX: 39 (potential) branch divergence @  PC=0x2c88 (_1.ptx:1783) @%p13 bra $Lt_5_88578;
GPGPU-Sim PTX:    immediate post dominator      @  PC=0x2cd8 (_1.ptx:1801) bar.sync 0;
GPGPU-Sim PTX: 40 (potential) branch divergence @  PC=0x2c90 (_1.ptx:1784) @!%p6 bra $L_5_48130;
GPGPU-Sim PTX:    immediate post dominator      @  PC=0x2cd8 (_1.ptx:1801) bar.sync 0;
GPGPU-Sim PTX: 41 (potential) branch divergence @  PC=0x2cc0 (_1.ptx:1794) bra.uni $L_5_47874;
GPGPU-Sim PTX:    immediate post dominator      @  PC=0x2cd8 (_1.ptx:1801) bar.sync 0;
GPGPU-Sim PTX: 42 (potential) branch divergence @  PC=0x2cf0 (_1.ptx:1804) @!%p3 bra $Lt_5_64002;
GPGPU-Sim PTX:    immediate post dominator      @  PC=0x2d18 (_1.ptx:1810) bar.sync 0;
GPGPU-Sim PTX: 43 (potential) branch divergence @  PC=0x2d20 (_1.ptx:1811) @!%p4 bra $Lt_5_64514;
GPGPU-Sim PTX:    immediate post dominator      @  PC=0x2d48 (_1.ptx:1817) bar.sync 0;
GPGPU-Sim PTX: 44 (potential) branch divergence @  PC=0x2d50 (_1.ptx:1818) @!%p5 bra $Lt_5_65026;
GPGPU-Sim PTX:    immediate post dominator      @  PC=0x2d78 (_1.ptx:1824) bar.sync 0;
GPGPU-Sim PTX: 45 (potential) branch divergence @  PC=0x2da0 (_1.ptx:1830) @!%p3 bra $Lt_5_65538;
GPGPU-Sim PTX:    immediate post dominator      @  PC=0x2dc8 (_1.ptx:1836) bar.sync 0;
GPGPU-Sim PTX: 46 (potential) branch divergence @  PC=0x2dd0 (_1.ptx:1837) @!%p4 bra $Lt_5_66050;
GPGPU-Sim PTX:    immediate post dominator      @  PC=0x2df8 (_1.ptx:1843) bar.sync 0;
GPGPU-Sim PTX: 47 (potential) branch divergence @  PC=0x2e00 (_1.ptx:1844) @!%p5 bra $Lt_5_66562;
GPGPU-Sim PTX:    immediate post dominator      @  PC=0x2e28 (_1.ptx:1850) bar.sync 0;
GPGPU-Sim PTX: 48 (potential) branch divergence @  PC=0x2e50 (_1.ptx:1856) @!%p3 bra $Lt_5_67074;
GPGPU-Sim PTX:    immediate post dominator      @  PC=0x2e78 (_1.ptx:1862) bar.sync 0;
GPGPU-Sim PTX: 49 (potential) branch divergence @  PC=0x2e80 (_1.ptx:1863) @!%p4 bra $Lt_5_67586;
GPGPU-Sim PTX:    immediate post dominator      @  PC=0x2ea8 (_1.ptx:1869) bar.sync 0;
GPGPU-Sim PTX: 50 (potential) branch divergence @  PC=0x2eb0 (_1.ptx:1870) @!%p5 bra $Lt_5_68098;
GPGPU-Sim PTX:    immediate post dominator      @  PC=0x2ed8 (_1.ptx:1876) bar.sync 0;
GPGPU-Sim PTX: 51 (potential) branch divergence @  PC=0x2f58 (_1.ptx:1897) @%p14 bra $Lt_5_23810;
GPGPU-Sim PTX:    immediate post dominator      @  PC=0x3168 (_1.ptx:1982) ld.param.u64 %rd30, [__cudaparm__Z35CalcFBHourglassForceForElems_kernelPdS_S_S_S_S_S_diPiS_S_S_S_S_S_S_S__nodelist];
GPGPU-Sim PTX: 52 (potential) branch divergence @  PC=0x2f78 (_1.ptx:1901) @%p15 bra $Lt_5_24066;
GPGPU-Sim PTX:    immediate post dominator      @  PC=0x3168 (_1.ptx:1982) ld.param.u64 %rd30, [__cudaparm__Z35CalcFBHourglassForceForElems_kernelPdS_S_S_S_S_S_diPiS_S_S_S_S_S_S_S__nodelist];
GPGPU-Sim PTX: 53 (potential) branch divergence @  PC=0x2f88 (_1.ptx:1905) bra.uni $LDWendi___finite_188_1;
GPGPU-Sim PTX:    immediate post dominator      @  PC=0x3168 (_1.ptx:1982) ld.param.u64 %rd30, [__cudaparm__Z35CalcFBHourglassForceForElems_kernelPdS_S_S_S_S_S_diPiS_S_S_S_S_S_S_S__nodelist];
GPGPU-Sim PTX: 54 (potential) branch divergence @  PC=0x2fc8 (_1.ptx:1916) @%p16 bra $Lt_5_68866;
GPGPU-Sim PTX:    immediate post dominator      @  PC=0x3008 (_1.ptx:1929) shl.b32 %r47, %r40, 1;
GPGPU-Sim PTX: 55 (potential) branch divergence @  PC=0x2ff8 (_1.ptx:1924) bra.uni $Lt_5_68610;
GPGPU-Sim PTX:    immediate post dominator      @  PC=0x3008 (_1.ptx:1929) shl.b32 %r47, %r40, 1;
GPGPU-Sim PTX: 56 (potential) branch divergence @  PC=0x3200 (_1.ptx:2003) @!%p3 bra $Lt_5_69122;
GPGPU-Sim PTX:    immediate post dominator      @  PC=0x3228 (_1.ptx:2009) bar.sync 0;
GPGPU-Sim PTX: 57 (potential) branch divergence @  PC=0x3230 (_1.ptx:2010) @!%p4 bra $Lt_5_69634;
GPGPU-Sim PTX:    immediate post dominator      @  PC=0x3258 (_1.ptx:2016) bar.sync 0;
GPGPU-Sim PTX: 58 (potential) branch divergence @  PC=0x3260 (_1.ptx:2017) @!%p5 bra $Lt_5_70146;
GPGPU-Sim PTX:    immediate post dominator      @  PC=0x3288 (_1.ptx:2023) bar.sync 0;
GPGPU-Sim PTX: 59 (potential) branch divergence @  PC=0x32c8 (_1.ptx:2033) @!%p3 bra $Lt_5_70658;
GPGPU-Sim PTX:    immediate post dominator      @  PC=0x32f0 (_1.ptx:2039) bar.sync 0;
GPGPU-Sim PTX: 60 (potential) branch divergence @  PC=0x32f8 (_1.ptx:2040) @!%p4 bra $Lt_5_71170;
GPGPU-Sim PTX:    immediate post dominator      @  PC=0x3320 (_1.ptx:2046) bar.sync 0;
GPGPU-Sim PTX: 61 (potential) branch divergence @  PC=0x3328 (_1.ptx:2047) @!%p5 bra $Lt_5_71682;
GPGPU-Sim PTX:    immediate post dominator      @  PC=0x3350 (_1.ptx:2053) bar.sync 0;
GPGPU-Sim PTX: 62 (potential) branch divergence @  PC=0x3388 (_1.ptx:2062) @!%p3 bra $Lt_5_72194;
GPGPU-Sim PTX:    immediate post dominator      @  PC=0x33b0 (_1.ptx:2068) bar.sync 0;
GPGPU-Sim PTX: 63 (potential) branch divergence @  PC=0x33b8 (_1.ptx:2069) @!%p4 bra $Lt_5_72706;
GPGPU-Sim PTX:    immediate post dominator      @  PC=0x33e0 (_1.ptx:2075) bar.sync 0;
GPGPU-Sim PTX: 64 (potential) branch divergence @  PC=0x33e8 (_1.ptx:2076) @!%p5 bra $Lt_5_73218;
GPGPU-Sim PTX:    immediate post dominator      @  PC=0x3410 (_1.ptx:2082) bar.sync 0;
GPGPU-Sim PTX: 65 (potential) branch divergence @  PC=0x3448 (_1.ptx:2091) @!%p3 bra $Lt_5_73730;
GPGPU-Sim PTX:    immediate post dominator      @  PC=0x3470 (_1.ptx:2097) bar.sync 0;
GPGPU-Sim PTX: 66 (potential) branch divergence @  PC=0x3478 (_1.ptx:2098) @!%p4 bra $Lt_5_74242;
GPGPU-Sim PTX:    immediate post dominator      @  PC=0x34a0 (_1.ptx:2104) bar.sync 0;
GPGPU-Sim PTX: 67 (potential) branch divergence @  PC=0x34a8 (_1.ptx:2105) @!%p5 bra $Lt_5_74754;
GPGPU-Sim PTX:    immediate post dominator      @  PC=0x34d0 (_1.ptx:2111) bar.sync 0;
GPGPU-Sim PTX: 68 (potential) branch divergence @  PC=0x3548 (_1.ptx:2129) @!%p3 bra $Lt_5_75266;
GPGPU-Sim PTX:    immediate post dominator      @  PC=0x3570 (_1.ptx:2135) bar.sync 0;
GPGPU-Sim PTX: 69 (potential) branch divergence @  PC=0x3578 (_1.ptx:2136) @!%p4 bra $Lt_5_75778;
GPGPU-Sim PTX:    immediate post dominator      @  PC=0x35a0 (_1.ptx:2142) bar.sync 0;
GPGPU-Sim PTX: 70 (potential) branch divergence @  PC=0x35a8 (_1.ptx:2143) @!%p5 bra $Lt_5_76290;
GPGPU-Sim PTX:    immediate post dominator      @  PC=0x35d0 (_1.ptx:2149) bar.sync 0;
GPGPU-Sim PTX: 71 (potential) branch divergence @  PC=0x3610 (_1.ptx:2159) @!%p3 bra $Lt_5_76802;
GPGPU-Sim PTX:    immediate post dominator      @  PC=0x3638 (_1.ptx:2165) bar.sync 0;
GPGPU-Sim PTX: 72 (potential) branch divergence @  PC=0x3640 (_1.ptx:2166) @!%p4 bra $Lt_5_77314;
GPGPU-Sim PTX:    immediate post dominator      @  PC=0x3668 (_1.ptx:2172) bar.sync 0;
GPGPU-Sim PTX: 73 (potential) branch divergence @  PC=0x3670 (_1.ptx:2173) @!%p5 bra $Lt_5_77826;
GPGPU-Sim PTX:    immediate post dominator      @  PC=0x3698 (_1.ptx:2179) bar.sync 0;
GPGPU-Sim PTX: 74 (potential) branch divergence @  PC=0x36d0 (_1.ptx:2188) @!%p3 bra $Lt_5_78338;
GPGPU-Sim PTX:    immediate post dominator      @  PC=0x36f8 (_1.ptx:2194) bar.sync 0;
GPGPU-Sim PTX: 75 (potential) branch divergence @  PC=0x3700 (_1.ptx:2195) @!%p4 bra $Lt_5_78850;
GPGPU-Sim PTX:    immediate post dominator      @  PC=0x3728 (_1.ptx:2201) bar.sync 0;
GPGPU-Sim PTX: 76 (potential) branch divergence @  PC=0x3730 (_1.ptx:2202) @!%p5 bra $Lt_5_79362;
GPGPU-Sim PTX:    immediate post dominator      @  PC=0x3758 (_1.ptx:2208) bar.sync 0;
GPGPU-Sim PTX: 77 (potential) branch divergence @  PC=0x3790 (_1.ptx:2217) @!%p3 bra $Lt_5_79874;
GPGPU-Sim PTX:    immediate post dominator      @  PC=0x37b8 (_1.ptx:2223) bar.sync 0;
GPGPU-Sim PTX: 78 (potential) branch divergence @  PC=0x37c0 (_1.ptx:2224) @!%p4 bra $Lt_5_80386;
GPGPU-Sim PTX:    immediate post dominator      @  PC=0x37e8 (_1.ptx:2230) bar.sync 0;
GPGPU-Sim PTX: 79 (potential) branch divergence @  PC=0x37f0 (_1.ptx:2231) @!%p5 bra $Lt_5_80898;
GPGPU-Sim PTX:    immediate post dominator      @  PC=0x3818 (_1.ptx:2237) bar.sync 0;
GPGPU-Sim PTX: 80 (potential) branch divergence @  PC=0x3858 (_1.ptx:2247) @!%p3 bra $Lt_5_81410;
GPGPU-Sim PTX:    immediate post dominator      @  PC=0x3880 (_1.ptx:2253) bar.sync 0;
GPGPU-Sim PTX: 81 (potential) branch divergence @  PC=0x3888 (_1.ptx:2254) @!%p4 bra $Lt_5_81922;
GPGPU-Sim PTX:    immediate post dominator      @  PC=0x38b0 (_1.ptx:2260) bar.sync 0;
GPGPU-Sim PTX: 82 (potential) branch divergence @  PC=0x38b8 (_1.ptx:2261) @!%p5 bra $Lt_5_82434;
GPGPU-Sim PTX:    immediate post dominator      @  PC=0x38e0 (_1.ptx:2267) bar.sync 0;
GPGPU-Sim PTX: 83 (potential) branch divergence @  PC=0x3920 (_1.ptx:2277) @!%p3 bra $Lt_5_82946;
GPGPU-Sim PTX:    immediate post dominator      @  PC=0x3948 (_1.ptx:2283) bar.sync 0;
GPGPU-Sim PTX: 84 (potential) branch divergence @  PC=0x3950 (_1.ptx:2284) @!%p4 bra $Lt_5_83458;
GPGPU-Sim PTX:    immediate post dominator      @  PC=0x3978 (_1.ptx:2290) bar.sync 0;
GPGPU-Sim PTX: 85 (potential) branch divergence @  PC=0x3980 (_1.ptx:2291) @!%p5 bra $Lt_5_83970;
GPGPU-Sim PTX:    immediate post dominator      @  PC=0x39a8 (_1.ptx:2297) bar.sync 0;
GPGPU-Sim PTX: 86 (potential) branch divergence @  PC=0x39e0 (_1.ptx:2306) @!%p3 bra $Lt_5_84482;
GPGPU-Sim PTX:    immediate post dominator      @  PC=0x3a08 (_1.ptx:2312) bar.sync 0;
GPGPU-Sim PTX: 87 (potential) branch divergence @  PC=0x3a10 (_1.ptx:2313) @!%p4 bra $Lt_5_84994;
GPGPU-Sim PTX:    immediate post dominator      @  PC=0x3a38 (_1.ptx:2319) bar.sync 0;
GPGPU-Sim PTX: 88 (potential) branch divergence @  PC=0x3a40 (_1.ptx:2320) @!%p5 bra $Lt_5_85506;
GPGPU-Sim PTX:    immediate post dominator      @  PC=0x3a68 (_1.ptx:2326) bar.sync 0;
GPGPU-Sim PTX: 89 (potential) branch divergence @  PC=0x3aa0 (_1.ptx:2335) @!%p3 bra $Lt_5_86018;
GPGPU-Sim PTX:    immediate post dominator      @  PC=0x3ac8 (_1.ptx:2341) bar.sync 0;
GPGPU-Sim PTX: 90 (potential) branch divergence @  PC=0x3ad0 (_1.ptx:2342) @!%p4 bra $Lt_5_86530;
GPGPU-Sim PTX:    immediate post dominator      @  PC=0x3af8 (_1.ptx:2348) bar.sync 0;
GPGPU-Sim PTX: 91 (potential) branch divergence @  PC=0x3b00 (_1.ptx:2349) @!%p5 bra $Lt_5_87042;
GPGPU-Sim PTX:    immediate post dominator      @  PC=0x3b28 (_1.ptx:2355) bar.sync 0;
GPGPU-Sim PTX: ... end of reconvergence points for _Z35CalcFBHourglassForceForElems_kernelPdS_S_S_S_S_S_diPiS_S_S_S_S_S_S_S_
GPGPU-Sim PTX: ... done pre-decoding instructions for '_Z35CalcFBHourglassForceForElems_kernelPdS_S_S_S_S_S_diPiS_S_S_S_S_S_S_S_'.
GPGPU-Sim PTX: allocating shared region for "__cuda_local_var_53262_34_non_const_array1__0" from 0x800 to 0x1000 (shared memory space)
GPGPU-Sim PTX: allocating shared region for "__cuda_local_var_53262_46_non_const_array2__1" from 0x1000 to 0x1800 (shared memory space)
GPGPU-Sim PTX: instruction assembly for function '_Z35CalcHourglassControlForElems_kerneliPiPdS0_S0_S0_S0_S0_S0_S0_S0_S0_S0_S0_'...   done.
GPGPU-Sim PTX: finding reconvergence points for '_Z35CalcHourglassControlForElems_kerneliPiPdS0_S0_S0_S0_S0_S0_S0_S0_S0_S0_S0_'...
GPGPU-Sim PTX: Finding dominators for '_Z35CalcHourglassControlForElems_kerneliPiPdS0_S0_S0_S0_S0_S0_S0_S0_S0_S0_S0_'...
GPGPU-Sim PTX: Finding immediate dominators for '_Z35CalcHourglassControlForElems_kerneliPiPdS0_S0_S0_S0_S0_S0_S0_S0_S0_S0_S0_'...
GPGPU-Sim PTX: Finding postdominators for '_Z35CalcHourglassControlForElems_kerneliPiPdS0_S0_S0_S0_S0_S0_S0_S0_S0_S0_S0_'...
GPGPU-Sim PTX: Finding immediate postdominators for '_Z35CalcHourglassControlForElems_kerneliPiPdS0_S0_S0_S0_S0_S0_S0_S0_S0_S0_S0_'...
GPGPU-Sim PTX: pre-decoding instructions for '_Z35CalcHourglassControlForElems_kerneliPiPdS0_S0_S0_S0_S0_S0_S0_S0_S0_S0_S0_'...
GPGPU-Sim PTX: reconvergence points for _Z35CalcHourglassControlForElems_kerneliPiPdS0_S0_S0_S0_S0_S0_S0_S0_S0_S0_S0_...
GPGPU-Sim PTX:  1 (potential) branch divergence @  PC=0x3c98 (_1.ptx:2434) @%p2 bra $Lt_6_258;
GPGPU-Sim PTX:    immediate post dominator      @  PC=0x3f40 (_1.ptx:2539) bar.sync 0;
GPGPU-Sim PTX:  2 (potential) branch divergence @  PC=0x3cb0 (_1.ptx:2437) @%p3 bra $Lt_6_770;
GPGPU-Sim PTX:    immediate post dominator      @  PC=0x3f40 (_1.ptx:2539) bar.sync 0;
GPGPU-Sim PTX:  3 (potential) branch divergence @  PC=0x3cc8 (_1.ptx:2440) @%p4 bra $Lt_6_1026;
GPGPU-Sim PTX:    immediate post dominator      @  PC=0x3f40 (_1.ptx:2539) bar.sync 0;
GPGPU-Sim PTX:  4 (potential) branch divergence @  PC=0x3ce0 (_1.ptx:2443) @%p5 bra $Lt_6_1282;
GPGPU-Sim PTX:    immediate post dominator      @  PC=0x3f40 (_1.ptx:2539) bar.sync 0;
GPGPU-Sim PTX:  5 (potential) branch divergence @  PC=0x3cf8 (_1.ptx:2446) @%p6 bra $Lt_6_1538;
GPGPU-Sim PTX:    immediate post dominator      @  PC=0x3f40 (_1.ptx:2539) bar.sync 0;
GPGPU-Sim PTX:  6 (potential) branch divergence @  PC=0x3d10 (_1.ptx:2449) @%p7 bra $Lt_6_1794;
GPGPU-Sim PTX:    immediate post dominator      @  PC=0x3f40 (_1.ptx:2539) bar.sync 0;
GPGPU-Sim PTX:  7 (potential) branch divergence @  PC=0x3d28 (_1.ptx:2452) @%p8 bra $Lt_6_2050;
GPGPU-Sim PTX:    immediate post dominator      @  PC=0x3f40 (_1.ptx:2539) bar.sync 0;
GPGPU-Sim PTX:  8 (potential) branch divergence @  PC=0x3d40 (_1.ptx:2455) @%p9 bra $Lt_6_2306;
GPGPU-Sim PTX:    immediate post dominator      @  PC=0x3f40 (_1.ptx:2539) bar.sync 0;
GPGPU-Sim PTX:  9 (potential) branch divergence @  PC=0x3d48 (_1.ptx:2456) bra.uni $Lt_6_2562;
GPGPU-Sim PTX:    immediate post dominator      @  PC=0x3f10 (_1.ptx:2531) mov.u32 %r22, -1;
GPGPU-Sim PTX: 10 (potential) branch divergence @  PC=0x3d80 (_1.ptx:2465) bra.uni $Lt_6_514;
GPGPU-Sim PTX:    immediate post dominator      @  PC=0x3f40 (_1.ptx:2539) bar.sync 0;
GPGPU-Sim PTX: 11 (potential) branch divergence @  PC=0x3db8 (_1.ptx:2474) bra.uni $Lt_6_514;
GPGPU-Sim PTX:    immediate post dominator      @  PC=0x3f40 (_1.ptx:2539) bar.sync 0;
GPGPU-Sim PTX: 12 (potential) branch divergence @  PC=0x3df0 (_1.ptx:2483) bra.uni $Lt_6_514;
GPGPU-Sim PTX:    immediate post dominator      @  PC=0x3f40 (_1.ptx:2539) bar.sync 0;
GPGPU-Sim PTX: 13 (potential) branch divergence @  PC=0x3e28 (_1.ptx:2492) bra.uni $Lt_6_514;
GPGPU-Sim PTX:    immediate post dominator      @  PC=0x3f40 (_1.ptx:2539) bar.sync 0;
GPGPU-Sim PTX: 14 (potential) branch divergence @  PC=0x3e60 (_1.ptx:2501) bra.uni $Lt_6_514;
GPGPU-Sim PTX:    immediate post dominator      @  PC=0x3f40 (_1.ptx:2539) bar.sync 0;
GPGPU-Sim PTX: 15 (potential) branch divergence @  PC=0x3e98 (_1.ptx:2510) bra.uni $Lt_6_514;
GPGPU-Sim PTX:    immediate post dominator      @  PC=0x3f40 (_1.ptx:2539) bar.sync 0;
GPGPU-Sim PTX: 16 (potential) branch divergence @  PC=0x3ed0 (_1.ptx:2519) bra.uni $Lt_6_514;
GPGPU-Sim PTX:    immediate post dominator      @  PC=0x3f40 (_1.ptx:2539) bar.sync 0;
GPGPU-Sim PTX: 17 (potential) branch divergence @  PC=0x3f08 (_1.ptx:2528) bra.uni $Lt_6_514;
GPGPU-Sim PTX:    immediate post dominator      @  PC=0x3f40 (_1.ptx:2539) bar.sync 0;
GPGPU-Sim PTX: ... end of reconvergence points for _Z35CalcHourglassControlForElems_kerneliPiPdS0_S0_S0_S0_S0_S0_S0_S0_S0_S0_S0_
GPGPU-Sim PTX: ... done pre-decoding instructions for '_Z35CalcHourglassControlForElems_kerneliPiPdS0_S0_S0_S0_S0_S0_S0_S0_S0_S0_S0_'.
GPGPU-Sim PTX: instruction assembly for function '_Z31CalcAccelerationForNodes_kerneliPdS_S_S_S_S_S_'...   done.
GPGPU-Sim PTX: finding reconvergence points for '_Z31CalcAccelerationForNodes_kerneliPdS_S_S_S_S_S_'...
GPGPU-Sim PTX: Finding dominators for '_Z31CalcAccelerationForNodes_kerneliPdS_S_S_S_S_S_'...
GPGPU-Sim PTX: Finding immediate dominators for '_Z31CalcAccelerationForNodes_kerneliPdS_S_S_S_S_S_'...
GPGPU-Sim PTX: Finding postdominators for '_Z31CalcAccelerationForNodes_kerneliPdS_S_S_S_S_S_'...
GPGPU-Sim PTX: Finding immediate postdominators for '_Z31CalcAccelerationForNodes_kerneliPdS_S_S_S_S_S_'...
GPGPU-Sim PTX: pre-decoding instructions for '_Z31CalcAccelerationForNodes_kerneliPdS_S_S_S_S_S_'...
GPGPU-Sim PTX: reconvergence points for _Z31CalcAccelerationForNodes_kerneliPdS_S_S_S_S_S_...
GPGPU-Sim PTX:  1 (potential) branch divergence @  PC=0x4688 (_1.ptx:2811) @%p1 bra $Lt_7_1026;
GPGPU-Sim PTX:    immediate post dominator      @  PC=0x4770 (_1.ptx:2845) exit;
GPGPU-Sim PTX: ... end of reconvergence points for _Z31CalcAccelerationForNodes_kerneliPdS_S_S_S_S_S_
GPGPU-Sim PTX: ... done pre-decoding instructions for '_Z31CalcAccelerationForNodes_kerneliPdS_S_S_S_S_S_'.
GPGPU-Sim PTX: instruction assembly for function '_Z50ApplyAccelerationBoundaryConditionsForNodes_kerneliPdS_S_PiS0_S0_'...   done.
GPGPU-Sim PTX: finding reconvergence points for '_Z50ApplyAccelerationBoundaryConditionsForNodes_kerneliPdS_S_PiS0_S0_'...
GPGPU-Sim PTX: Finding dominators for '_Z50ApplyAccelerationBoundaryConditionsForNodes_kerneliPdS_S_PiS0_S0_'...
GPGPU-Sim PTX: Finding immediate dominators for '_Z50ApplyAccelerationBoundaryConditionsForNodes_kerneliPdS_S_PiS0_S0_'...
GPGPU-Sim PTX: Finding postdominators for '_Z50ApplyAccelerationBoundaryConditionsForNodes_kerneliPdS_S_PiS0_S0_'...
GPGPU-Sim PTX: Finding immediate postdominators for '_Z50ApplyAccelerationBoundaryConditionsForNodes_kerneliPdS_S_PiS0_S0_'...
GPGPU-Sim PTX: pre-decoding instructions for '_Z50ApplyAccelerationBoundaryConditionsForNodes_kerneliPdS_S_PiS0_S0_'...
GPGPU-Sim PTX: reconvergence points for _Z50ApplyAccelerationBoundaryConditionsForNodes_kerneliPdS_S_PiS0_S0_...
GPGPU-Sim PTX:  1 (potential) branch divergence @  PC=0x47b0 (_1.ptx:2871) @%p1 bra $Lt_8_1026;
GPGPU-Sim PTX:    immediate post dominator      @  PC=0x48a0 (_1.ptx:2906) exit;
GPGPU-Sim PTX: ... end of reconvergence points for _Z50ApplyAccelerationBoundaryConditionsForNodes_kerneliPdS_S_PiS0_S0_
GPGPU-Sim PTX: ... done pre-decoding instructions for '_Z50ApplyAccelerationBoundaryConditionsForNodes_kerneliPdS_S_PiS0_S0_'.
GPGPU-Sim PTX: instruction assembly for function '_Z27CalcVelocityForNodes_kerneliddPdS_S_S_S_S_'...   done.
GPGPU-Sim PTX: finding reconvergence points for '_Z27CalcVelocityForNodes_kerneliddPdS_S_S_S_S_'...
GPGPU-Sim PTX: Finding dominators for '_Z27CalcVelocityForNodes_kerneliddPdS_S_S_S_S_'...
GPGPU-Sim PTX: Finding immediate dominators for '_Z27CalcVelocityForNodes_kerneliddPdS_S_S_S_S_'...
GPGPU-Sim PTX: Finding postdominators for '_Z27CalcVelocityForNodes_kerneliddPdS_S_S_S_S_'...
GPGPU-Sim PTX: Finding immediate postdominators for '_Z27CalcVelocityForNodes_kerneliddPdS_S_S_S_S_'...
GPGPU-Sim PTX: pre-decoding instructions for '_Z27CalcVelocityForNodes_kerneliddPdS_S_S_S_S_'...
GPGPU-Sim PTX: reconvergence points for _Z27CalcVelocityForNodes_kerneliddPdS_S_S_S_S_...
GPGPU-Sim PTX:  1 (potential) branch divergence @  PC=0x48e0 (_1.ptx:2934) @%p1 bra $Lt_9_3330;
GPGPU-Sim PTX:    immediate post dominator      @  PC=0x4a28 (_1.ptx:2983) exit;
GPGPU-Sim PTX: ... end of reconvergence points for _Z27CalcVelocityForNodes_kerneliddPdS_S_S_S_S_
GPGPU-Sim PTX: ... done pre-decoding instructions for '_Z27CalcVelocityForNodes_kerneliddPdS_S_S_S_S_'.
GPGPU-Sim PTX: instruction assembly for function '_Z27CalcPositionForNodes_kernelidPdS_S_S_S_S_'...   done.
GPGPU-Sim PTX: finding reconvergence points for '_Z27CalcPositionForNodes_kernelidPdS_S_S_S_S_'...
GPGPU-Sim PTX: Finding dominators for '_Z27CalcPositionForNodes_kernelidPdS_S_S_S_S_'...
GPGPU-Sim PTX: Finding immediate dominators for '_Z27CalcPositionForNodes_kernelidPdS_S_S_S_S_'...
GPGPU-Sim PTX: Finding postdominators for '_Z27CalcPositionForNodes_kernelidPdS_S_S_S_S_'...
GPGPU-Sim PTX: Finding immediate postdominators for '_Z27CalcPositionForNodes_kernelidPdS_S_S_S_S_'...
GPGPU-Sim PTX: pre-decoding instructions for '_Z27CalcPositionForNodes_kernelidPdS_S_S_S_S_'...
GPGPU-Sim PTX: reconvergence points for _Z27CalcPositionForNodes_kernelidPdS_S_S_S_S_...
GPGPU-Sim PTX:  1 (potential) branch divergence @  PC=0x4a68 (_1.ptx:3010) @%p1 bra $Lt_10_1026;
GPGPU-Sim PTX:    immediate post dominator      @  PC=0x4b48 (_1.ptx:3043) exit;
GPGPU-Sim PTX: ... end of reconvergence points for _Z27CalcPositionForNodes_kernelidPdS_S_S_S_S_
GPGPU-Sim PTX: ... done pre-decoding instructions for '_Z27CalcPositionForNodes_kernelidPdS_S_S_S_S_'.
GPGPU-Sim PTX: instruction assembly for function '_Z29CalcKinematicsForElems_kernelidPiPdS0_S0_S0_S0_S0_S0_S0_S0_S0_S0_S0_S0_S0_'...   done.
GPGPU-Sim PTX: finding reconvergence points for '_Z29CalcKinematicsForElems_kernelidPiPdS0_S0_S0_S0_S0_S0_S0_S0_S0_S0_S0_S0_S0_'...
GPGPU-Sim PTX: Finding dominators for '_Z29CalcKinematicsForElems_kernelidPiPdS0_S0_S0_S0_S0_S0_S0_S0_S0_S0_S0_S0_S0_'...
GPGPU-Sim PTX: Finding immediate dominators for '_Z29CalcKinematicsForElems_kernelidPiPdS0_S0_S0_S0_S0_S0_S0_S0_S0_S0_S0_S0_S0_'...
GPGPU-Sim PTX: Finding postdominators for '_Z29CalcKinematicsForElems_kernelidPiPdS0_S0_S0_S0_S0_S0_S0_S0_S0_S0_S0_S0_S0_'...
GPGPU-Sim PTX: Finding immediate postdominators for '_Z29CalcKinematicsForElems_kernelidPiPdS0_S0_S0_S0_S0_S0_S0_S0_S0_S0_S0_S0_S0_'...
GPGPU-Sim PTX: pre-decoding instructions for '_Z29CalcKinematicsForElems_kernelidPiPdS0_S0_S0_S0_S0_S0_S0_S0_S0_S0_S0_S0_S0_'...
GPGPU-Sim PTX: reconvergence points for _Z29CalcKinematicsForElems_kernelidPiPdS0_S0_S0_S0_S0_S0_S0_S0_S0_S0_S0_S0_S0_...
GPGPU-Sim PTX:  1 (potential) branch divergence @  PC=0x4b88 (_1.ptx:3085) @%p1 bra $Lt_11_4098;
GPGPU-Sim PTX:    immediate post dominator      @  PC=0x63b8 (_1.ptx:3957) exit;
GPGPU-Sim PTX: ... end of reconvergence points for _Z29CalcKinematicsForElems_kernelidPiPdS0_S0_S0_S0_S0_S0_S0_S0_S0_S0_S0_S0_S0_
GPGPU-Sim PTX: ... done pre-decoding instructions for '_Z29CalcKinematicsForElems_kernelidPiPdS0_S0_S0_S0_S0_S0_S0_S0_S0_S0_S0_S0_S0_'.
GPGPU-Sim PTX: instruction assembly for function '_Z32CalcLagrangeElementsPart2_kerneliPdS_S_S_'...   done.
GPGPU-Sim PTX: finding reconvergence points for '_Z32CalcLagrangeElementsPart2_kerneliPdS_S_S_'...
GPGPU-Sim PTX: Finding dominators for '_Z32CalcLagrangeElementsPart2_kerneliPdS_S_S_'...
GPGPU-Sim PTX: Finding immediate dominators for '_Z32CalcLagrangeElementsPart2_kerneliPdS_S_S_'...
GPGPU-Sim PTX: Finding postdominators for '_Z32CalcLagrangeElementsPart2_kerneliPdS_S_S_'...
GPGPU-Sim PTX: Finding immediate postdominators for '_Z32CalcLagrangeElementsPart2_kerneliPdS_S_S_'...
GPGPU-Sim PTX: pre-decoding instructions for '_Z32CalcLagrangeElementsPart2_kerneliPdS_S_S_'...
GPGPU-Sim PTX: reconvergence points for _Z32CalcLagrangeElementsPart2_kerneliPdS_S_S_...
GPGPU-Sim PTX:  1 (potential) branch divergence @  PC=0x63f8 (_1.ptx:3981) @%p1 bra $Lt_12_1026;
GPGPU-Sim PTX:    immediate post dominator      @  PC=0x64d8 (_1.ptx:4016) exit;
GPGPU-Sim PTX: ... end of reconvergence points for _Z32CalcLagrangeElementsPart2_kerneliPdS_S_S_
GPGPU-Sim PTX: ... done pre-decoding instructions for '_Z32CalcLagrangeElementsPart2_kerneliPdS_S_S_'.
GPGPU-Sim PTX: instruction assembly for function '_Z38CalcMonotonicQGradientsForElems_kerneliPiPdS0_S0_S0_S0_S0_S0_S0_S0_S0_S0_S0_S0_S0_'...   done.
GPGPU-Sim PTX: finding reconvergence points for '_Z38CalcMonotonicQGradientsForElems_kerneliPiPdS0_S0_S0_S0_S0_S0_S0_S0_S0_S0_S0_S0_S0_'...
GPGPU-Sim PTX: Finding dominators for '_Z38CalcMonotonicQGradientsForElems_kerneliPiPdS0_S0_S0_S0_S0_S0_S0_S0_S0_S0_S0_S0_S0_'...
GPGPU-Sim PTX: Finding immediate dominators for '_Z38CalcMonotonicQGradientsForElems_kerneliPiPdS0_S0_S0_S0_S0_S0_S0_S0_S0_S0_S0_S0_S0_'...
GPGPU-Sim PTX: Finding postdominators for '_Z38CalcMonotonicQGradientsForElems_kerneliPiPdS0_S0_S0_S0_S0_S0_S0_S0_S0_S0_S0_S0_S0_'...
GPGPU-Sim PTX: Finding immediate postdominators for '_Z38CalcMonotonicQGradientsForElems_kerneliPiPdS0_S0_S0_S0_S0_S0_S0_S0_S0_S0_S0_S0_S0_'...
GPGPU-Sim PTX: pre-decoding instructions for '_Z38CalcMonotonicQGradientsForElems_kerneliPiPdS0_S0_S0_S0_S0_S0_S0_S0_S0_S0_S0_S0_S0_'...
GPGPU-Sim PTX: reconvergence points for _Z38CalcMonotonicQGradientsForElems_kerneliPiPdS0_S0_S0_S0_S0_S0_S0_S0_S0_S0_S0_S0_S0_...
GPGPU-Sim PTX:  1 (potential) branch divergence @  PC=0x6518 (_1.ptx:4051) @%p1 bra $Lt_13_1026;
GPGPU-Sim PTX:    immediate post dominator      @  PC=0x7218 (_1.ptx:4532) exit;
GPGPU-Sim PTX: ... end of reconvergence points for _Z38CalcMonotonicQGradientsForElems_kerneliPiPdS0_S0_S0_S0_S0_S0_S0_S0_S0_S0_S0_S0_S0_
GPGPU-Sim PTX: ... done pre-decoding instructions for '_Z38CalcMonotonicQGradientsForElems_kerneliPiPdS0_S0_S0_S0_S0_S0_S0_S0_S0_S0_S0_S0_S0_'.
GPGPU-Sim PTX: instruction assembly for function '_Z35CalcMonotonicQRegionForElems_kerneldddddiPiS_S_S_S_S_S_S_PdS0_S0_S0_S0_S0_S0_S0_S0_S0_S0_S0_'...   done.
GPGPU-Sim PTX: finding reconvergence points for '_Z35CalcMonotonicQRegionForElems_kerneldddddiPiS_S_S_S_S_S_S_PdS0_S0_S0_S0_S0_S0_S0_S0_S0_S0_S0_'...
GPGPU-Sim PTX: Finding dominators for '_Z35CalcMonotonicQRegionForElems_kerneldddddiPiS_S_S_S_S_S_S_PdS0_S0_S0_S0_S0_S0_S0_S0_S0_S0_S0_'...
GPGPU-Sim PTX: Finding immediate dominators for '_Z35CalcMonotonicQRegionForElems_kerneldddddiPiS_S_S_S_S_S_S_PdS0_S0_S0_S0_S0_S0_S0_S0_S0_S0_S0_'...
GPGPU-Sim PTX: Finding postdominators for '_Z35CalcMonotonicQRegionForElems_kerneldddddiPiS_S_S_S_S_S_S_PdS0_S0_S0_S0_S0_S0_S0_S0_S0_S0_S0_'...
GPGPU-Sim PTX: Finding immediate postdominators for '_Z35CalcMonotonicQRegionForElems_kerneldddddiPiS_S_S_S_S_S_S_PdS0_S0_S0_S0_S0_S0_S0_S0_S0_S0_S0_'...
GPGPU-Sim PTX: pre-decoding instructions for '_Z35CalcMonotonicQRegionForElems_kerneldddddiPiS_S_S_S_S_S_S_PdS0_S0_S0_S0_S0_S0_S0_S0_S0_S0_S0_'...
GPGPU-Sim PTX: reconvergence points for _Z35CalcMonotonicQRegionForElems_kerneldddddiPiS_S_S_S_S_S_S_PdS0_S0_S0_S0_S0_S0_S0_S0_S0_S0_S0_...
GPGPU-Sim PTX:  1 (potential) branch divergence @  PC=0x7258 (_1.ptx:4579) @%p1 bra $Lt_14_24066;
GPGPU-Sim PTX:    immediate post dominator      @  PC=0x7b98 (_1.ptx:4964) exit;
GPGPU-Sim PTX:  2 (potential) branch divergence @  PC=0x7300 (_1.ptx:4604) @%p2 bra $Lt_14_258;
GPGPU-Sim PTX:    immediate post dominator      @  PC=0x73a0 (_1.ptx:4632) and.b32 %r14, %r8, 12;
GPGPU-Sim PTX:  3 (potential) branch divergence @  PC=0x7318 (_1.ptx:4607) @%p3 bra $Lt_14_770;
GPGPU-Sim PTX:    immediate post dominator      @  PC=0x73a0 (_1.ptx:4632) and.b32 %r14, %r8, 12;
GPGPU-Sim PTX:  4 (potential) branch divergence @  PC=0x7330 (_1.ptx:4610) @%p4 bra $Lt_14_1026;
GPGPU-Sim PTX:    immediate post dominator      @  PC=0x73a0 (_1.ptx:4632) and.b32 %r14, %r8, 12;
GPGPU-Sim PTX:  5 (potential) branch divergence @  PC=0x7340 (_1.ptx:4612) bra.uni $Lt_14_514;
GPGPU-Sim PTX:    immediate post dominator      @  PC=0x73a0 (_1.ptx:4632) and.b32 %r14, %r8, 12;
GPGPU-Sim PTX:  6 (potential) branch divergence @  PC=0x7380 (_1.ptx:4622) bra.uni $Lt_14_514;
GPGPU-Sim PTX:    immediate post dominator      @  PC=0x73a0 (_1.ptx:4632) and.b32 %r14, %r8, 12;
GPGPU-Sim PTX:  7 (potential) branch divergence @  PC=0x7390 (_1.ptx:4626) bra.uni $Lt_14_514;
GPGPU-Sim PTX:    immediate post dominator      @  PC=0x73a0 (_1.ptx:4632) and.b32 %r14, %r8, 12;
GPGPU-Sim PTX:  8 (potential) branch divergence @  PC=0x73b8 (_1.ptx:4635) @%p5 bra $Lt_14_2050;
GPGPU-Sim PTX:    immediate post dominator      @  PC=0x7458 (_1.ptx:4663) mul.f64 %fd9, %fd4, %fd5;
GPGPU-Sim PTX:  9 (potential) branch divergence @  PC=0x73d0 (_1.ptx:4638) @%p6 bra $Lt_14_2562;
GPGPU-Sim PTX:    immediate post dominator      @  PC=0x7458 (_1.ptx:4663) mul.f64 %fd9, %fd4, %fd5;
GPGPU-Sim PTX: 10 (potential) branch divergence @  PC=0x73e8 (_1.ptx:4641) @%p7 bra $Lt_14_2818;
GPGPU-Sim PTX:    immediate post dominator      @  PC=0x7458 (_1.ptx:4663) mul.f64 %fd9, %fd4, %fd5;
GPGPU-Sim PTX: 11 (potential) branch divergence @  PC=0x73f8 (_1.ptx:4643) bra.uni $Lt_14_2306;
[...]
GPGPU-Sim PTX: loading globals with explicit initializers... 
GPGPU-Sim PTX: finished loading globals (0 bytes total).
GPGPU-Sim PTX: loading constants with explicit initializers...  done.
GPGPU-Sim PTX: __cudaRegisterFatBinary, fat_cubin_handle = 27, filename=MM/mm.cu
GPGPU-Sim PTX: __cudaRegisterFunction _Z9mysgemmNTPKfiS0_iPfiiff : hostFun 0x0x454d54, fat_cubin_handle = 27
GPGPU-Sim PTX: allocating shared region for "__cuda___cuda_local_var_76857_35_non_const_b_s56" from 0x1800 to 0x1a00 (shared memory space)
GPGPU-Sim PTX: instruction assembly for function '_Z9mysgemmNTPKfiS0_iPfiiff'...   done.
GPGPU-Sim PTX: finding reconvergence points for '_Z9mysgemmNTPKfiS0_iPfiiff'...
GPGPU-Sim PTX: Finding dominators for '_Z9mysgemmNTPKfiS0_iPfiiff'...
GPGPU-Sim PTX: Finding immediate dominators for '_Z9mysgemmNTPKfiS0_iPfiiff'...
GPGPU-Sim PTX: Finding postdominators for '_Z9mysgemmNTPKfiS0_iPfiiff'...
GPGPU-Sim PTX: Finding immediate postdominators for '_Z9mysgemmNTPKfiS0_iPfiiff'...
GPGPU-Sim PTX: pre-decoding instructions for '_Z9mysgemmNTPKfiS0_iPfiiff'...
GPGPU-Sim PTX: reconvergence points for _Z9mysgemmNTPKfiS0_iPfiiff...
GPGPU-Sim PTX:  1 (potential) branch divergence @  PC=0x34278 (_27.ptx:115) @%p1 bra $Lt_0_5378;
GPGPU-Sim PTX:    immediate post dominator      @  PC=0x34630 (_27.ptx:245) ld.param.s32 %r33, [__cudaparm__Z9mysgemmNTPKfiS0_iPfiiff_ldc];
GPGPU-Sim PTX:  2 (potential) branch divergence @  PC=0x345f8 (_27.ptx:235) @%p2 bra $Lt_0_6658;
GPGPU-Sim PTX:    immediate post dominator      @  PC=0x34600 (_27.ptx:237) bar.sync 0;
GPGPU-Sim PTX:  3 (potential) branch divergence @  PC=0x34628 (_27.ptx:242) @%p3 bra $Lt_0_5890;
GPGPU-Sim PTX:    immediate post dominator      @  PC=0x34630 (_27.ptx:245) ld.param.s32 %r33, [__cudaparm__Z9mysgemmNTPKfiS0_iPfiiff_ldc];
GPGPU-Sim PTX: ... end of reconvergence points for _Z9mysgemmNTPKfiS0_iPfiiff
GPGPU-Sim PTX: ... done pre-decoding instructions for '_Z9mysgemmNTPKfiS0_iPfiiff'.
GPGPU-Sim PTX: finished parsing EMBEDDED .ptx file _27.ptx
Adding _cuobjdump_27.ptx with cubin handle 27
GPGPU-Sim PTX: extracting embedded .ptx to temporary file "_ptx_2WtHLn"
Running: cat _ptx_2WtHLn | sed 's/.version 1.5/.version 1.4/' | sed 's/, texmode_independent//' | sed 's/\(\.extern \.const\[1\] .b8 \w\+\)\[\]/\1\[1\]/' | sed 's/const\[.\]/const\[0\]/g' > _ptx2_n8Rd1M
GPGPU-Sim PTX: generating ptxinfo using "$CUDA_INSTALL_PATH/bin/ptxas --gpu-name=sm_20 -v _ptx2_n8Rd1M --output-file  /dev/null 2> _ptx_2WtHLninfo"
GPGPU-Sim PTX: Kernel '_Z9mysgemmNTPKfiS0_iPfiiff' : regs=41, lmem=0, smem=512, cmem=88
GPGPU-Sim PTX: removing ptxinfo using "rm -f _ptx_2WtHLn _ptx2_n8Rd1M _ptx_2WtHLninfo"
GPGPU-Sim PTX: loading globals with explicit initializers... 
GPGPU-Sim PTX: finished loading globals (0 bytes total).
GPGPU-Sim PTX: loading constants with explicit initializers...  done.
GPGPU-Sim PTX: __cudaRegisterFatBinary, fat_cubin_handle = 28, filename=HS/hotspot.cu
GPGPU-Sim PTX: __cudaRegisterFunction _Z14calculate_tempiPfS_S_iiiiffffff : hostFun 0x0x4560f4, fat_cubin_handle = 28
GPGPU-Sim PTX: allocating shared region for "__cuda___cuda_local_var_44350_39_non_const_temp_on_cuda72" from 0x1800 to 0x1c00 (shared memory space)
GPGPU-Sim PTX: allocating shared region for "__cuda___cuda_local_var_44351_39_non_const_power_on_cuda1096" from 0x1c00 to 0x2000 (shared memory space)
GPGPU-Sim PTX: allocating shared region for "__cuda___cuda_local_var_44352_39_non_const_temp_t2120" from 0x2000 to 0x2400 (shared memory space)
GPGPU-Sim PTX: instruction assembly for function '_Z14calculate_tempiPfS_S_iiiiffffff'...   done.
GPGPU-Sim PTX: finding reconvergence points for '_Z14calculate_tempiPfS_S_iiiiffffff'...
GPGPU-Sim PTX: Finding dominators for '_Z14calculate_tempiPfS_S_iiiiffffff'...
GPGPU-Sim PTX: Finding immediate dominators for '_Z14calculate_tempiPfS_S_iiiiffffff'...
GPGPU-Sim PTX: Finding postdominators for '_Z14calculate_tempiPfS_S_iiiiffffff'...
GPGPU-Sim PTX: Finding immediate postdominators for '_Z14calculate_tempiPfS_S_iiiiffffff'...
GPGPU-Sim PTX: pre-decoding instructions for '_Z14calculate_tempiPfS_S_iiiiffffff'...
GPGPU-Sim PTX: reconvergence points for _Z14calculate_tempiPfS_S_iiiiffffff...
GPGPU-Sim PTX:  1 (potential) branch divergence @  PC=0x34bb8 (_28.ptx:91) @%p1 bra $Lt_0_15106;
GPGPU-Sim PTX:    immediate post dominator      @  PC=0x34cf0 (_28.ptx:134) mov.u64 %rd1, __cuda___cuda_local_var_44350_39_non_const_temp_on_cuda72;
GPGPU-Sim PTX:  2 (potential) branch divergence @  PC=0x34bd8 (_28.ptx:95) @%p2 bra $Lt_0_15106;
GPGPU-Sim PTX:    immediate post dominator      @  PC=0x34cf0 (_28.ptx:134) mov.u64 %rd1, __cuda___cuda_local_var_44350_39_non_const_temp_on_cuda72;
GPGPU-Sim PTX:  3 (potential) branch divergence @  PC=0x34c20 (_28.ptx:104) @%p3 bra $Lt_0_15106;
GPGPU-Sim PTX:    immediate post dominator      @  PC=0x34cf0 (_28.ptx:134) mov.u64 %rd1, __cuda___cuda_local_var_44350_39_non_const_temp_on_cuda72;
GPGPU-Sim PTX:  4 (potential) branch divergence @  PC=0x34c40 (_28.ptx:108) @%p4 bra $Lt_0_15106;
GPGPU-Sim PTX:    immediate post dominator      @  PC=0x34cf0 (_28.ptx:134) mov.u64 %rd1, __cuda___cuda_local_var_44350_39_non_const_temp_on_cuda72;
GPGPU-Sim PTX:  5 (potential) branch divergence @  PC=0x34d18 (_28.ptx:140) @%p5 bra $Lt_0_15618;
GPGPU-Sim PTX:    immediate post dominator      @  PC=0x35208 (_28.ptx:315) @!%p20 bra $Lt_0_14082;
GPGPU-Sim PTX:  6 (potential) branch divergence @  PC=0x34ee0 (_28.ptx:200) @%p10 bra $Lt_0_17410;
GPGPU-Sim PTX:    immediate post dominator      @  PC=0x35120 (_28.ptx:277) bar.sync 0;
GPGPU-Sim PTX:  7 (potential) branch divergence @  PC=0x34f00 (_28.ptx:204) @%p11 bra $Lt_0_17410;
GPGPU-Sim PTX:    immediate post dominator      @  PC=0x35120 (_28.ptx:277) bar.sync 0;
GPGPU-Sim PTX:  8 (potential) branch divergence @  PC=0x34f10 (_28.ptx:206) @%p12 bra $Lt_0_17410;
GPGPU-Sim PTX:    immediate post dominator      @  PC=0x35120 (_28.ptx:277) bar.sync 0;
GPGPU-Sim PTX:  9 (potential) branch divergence @  PC=0x34f20 (_28.ptx:208) @%p13 bra $Lt_0_17410;
GPGPU-Sim PTX:    immediate post dominator      @  PC=0x35120 (_28.ptx:277) bar.sync 0;
GPGPU-Sim PTX: 10 (potential) branch divergence @  PC=0x34f30 (_28.ptx:210) @%p14 bra $Lt_0_17410;
GPGPU-Sim PTX:    immediate post dominator      @  PC=0x35120 (_28.ptx:277) bar.sync 0;
GPGPU-Sim PTX: 11 (potential) branch divergence @  PC=0x34f40 (_28.ptx:212) @%p15 bra $Lt_0_17410;
GPGPU-Sim PTX:    immediate post dominator      @  PC=0x35120 (_28.ptx:277) bar.sync 0;
GPGPU-Sim PTX: 12 (potential) branch divergence @  PC=0x34f50 (_28.ptx:214) @%p16 bra $Lt_0_17410;
GPGPU-Sim PTX:    immediate post dominator      @  PC=0x35120 (_28.ptx:277) bar.sync 0;
GPGPU-Sim PTX: 13 (potential) branch divergence @  PC=0x34f60 (_28.ptx:216) @%p17 bra $Lt_0_17410;
GPGPU-Sim PTX:    immediate post dominator      @  PC=0x35120 (_28.ptx:277) bar.sync 0;
GPGPU-Sim PTX: 14 (potential) branch divergence @  PC=0x35130 (_28.ptx:280) @%p18 bra $Lt_0_17922;
GPGPU-Sim PTX:    immediate post dominator      @  PC=0x35208 (_28.ptx:315) @!%p20 bra $Lt_0_14082;
GPGPU-Sim PTX: 15 (potential) branch divergence @  PC=0x35158 (_28.ptx:285) @!%p19 bra $Lt_0_13314;
GPGPU-Sim PTX:    immediate post dominator      @  PC=0x351a8 (_28.ptx:298) bar.sync 0;
GPGPU-Sim PTX: 16 (potential) branch divergence @  PC=0x351c0 (_28.ptx:302) @%p23 bra $Lt_0_13058;
GPGPU-Sim PTX:    immediate post dominator      @  PC=0x35208 (_28.ptx:315) @!%p20 bra $Lt_0_14082;
GPGPU-Sim PTX: 17 (potential) branch divergence @  PC=0x351c8 (_28.ptx:303) bra.uni $Lt_0_258;
GPGPU-Sim PTX:    immediate post dominator      @  PC=0x35208 (_28.ptx:315) @!%p20 bra $Lt_0_14082;
GPGPU-Sim PTX: 18 (potential) branch divergence @  PC=0x351f0 (_28.ptx:309) bra.uni $Lt_0_258;
GPGPU-Sim PTX:    immediate post dominator      @  PC=0x35208 (_28.ptx:315) @!%p20 bra $Lt_0_14082;
GPGPU-Sim PTX: 19 (potential) branch divergence @  PC=0x35208 (_28.ptx:315) @!%p20 bra $Lt_0_14082;
GPGPU-Sim PTX:    immediate post dominator      @  PC=0x352b8 (_28.ptx:340) exit;
GPGPU-Sim PTX: ... end of reconvergence points for _Z14calculate_tempiPfS_S_iiiiffffff
GPGPU-Sim PTX: ... done pre-decoding instructions for '_Z14calculate_tempiPfS_S_iiiiffffff'.
GPGPU-Sim PTX: finished parsing EMBEDDED .ptx file _28.ptx
Adding _cuobjdump_28.ptx with cubin handle 28
GPGPU-Sim PTX: extracting embedded .ptx to temporary file "_ptx_2Ij3Uc"
Running: cat _ptx_2Ij3Uc | sed 's/.version 1.5/.version 1.4/' | sed 's/, texmode_independent//' | sed 's/\(\.extern \.const\[1\] .b8 \w\+\)\[\]/\1\[1\]/' | sed 's/const\[.\]/const\[0\]/g' > _ptx2_N9CTOC
GPGPU-Sim PTX: generating ptxinfo using "$CUDA_INSTALL_PATH/bin/ptxas --gpu-name=sm_20 -v _ptx2_N9CTOC --output-file  /dev/null 2> _ptx_2Ij3Ucinfo"
GPGPU-Sim PTX: Kernel '_Z14calculate_tempiPfS_S_iiiiffffff' : regs=35, lmem=0, smem=3072, cmem=120
GPGPU-Sim PTX: removing ptxinfo using "rm -f _ptx_2Ij3Uc _ptx2_N9CTOC _ptx_2Ij3Ucinfo"
GPGPU-Sim PTX: loading globals with explicit initializers... 
GPGPU-Sim PTX: finished loading globals (0 bytes total).
GPGPU-Sim PTX: loading constants with explicit initializers...  done.
GPGPU-Sim PTX: __cudaRegisterFatBinary, fat_cubin_handle = 29, filename=BLK/BlackScholes.cu
GPGPU-Sim PTX: __cudaRegisterFunction _Z15BlackScholesGPUPfS_S_S_S_ffi : hostFun 0x0x456ce0, fat_cubin_handle = 29
GPGPU-Sim PTX: instruction assembly for function '_Z15BlackScholesGPUPfS_S_S_S_ffi'...   done.
GPGPU-Sim PTX: finding reconvergence points for '_Z15BlackScholesGPUPfS_S_S_S_ffi'...
GPGPU-Sim PTX: Finding dominators for '_Z15BlackScholesGPUPfS_S_S_S_ffi'...
GPGPU-Sim PTX: Finding immediate dominators for '_Z15BlackScholesGPUPfS_S_S_S_ffi'...
GPGPU-Sim PTX: Finding postdominators for '_Z15BlackScholesGPUPfS_S_S_S_ffi'...
GPGPU-Sim PTX: Finding immediate postdominators for '_Z15BlackScholesGPUPfS_S_S_S_ffi'...
GPGPU-Sim PTX: pre-decoding instructions for '_Z15BlackScholesGPUPfS_S_S_S_ffi'...
GPGPU-Sim PTX: reconvergence points for _Z15BlackScholesGPUPfS_S_S_S_ffi...
GPGPU-Sim PTX:  1 (potential) branch divergence @  PC=0x35300 (_29.ptx:76) @%p1 bra $Lt_0_2818;
GPGPU-Sim PTX:    immediate post dominator      @  PC=0x356b8 (_29.ptx:200) exit;
GPGPU-Sim PTX:  2 (potential) branch divergence @  PC=0x356b0 (_29.ptx:197) @%p4 bra $Lt_0_3330;
GPGPU-Sim PTX:    immediate post dominator      @  PC=0x356b8 (_29.ptx:200) exit;
GPGPU-Sim PTX: ... end of reconvergence points for _Z15BlackScholesGPUPfS_S_S_S_ffi
GPGPU-Sim PTX: ... done pre-decoding instructions for '_Z15BlackScholesGPUPfS_S_S_S_ffi'.
GPGPU-Sim PTX: finished parsing EMBEDDED .ptx file _29.ptx
Adding _cuobjdump_29.ptx with cubin handle 29
GPGPU-Sim PTX: extracting embedded .ptx to temporary file "_ptx_ywBaU2"
Running: cat _ptx_ywBaU2 | sed 's/.version 1.5/.version 1.4/' | sed 's/, texmode_independent//' | sed 's/\(\.extern \.const\[1\] .b8 \w\+\)\[\]/\1\[1\]/' | sed 's/const\[.\]/const\[0\]/g' > _ptx2_RewsZs
GPGPU-Sim PTX: generating ptxinfo using "$CUDA_INSTALL_PATH/bin/ptxas --gpu-name=sm_20 -v _ptx2_RewsZs --output-file  /dev/null 2> _ptx_ywBaU2info"
GPGPU-Sim PTX: Kernel '_Z15BlackScholesGPUPfS_S_S_S_ffi' : regs=31, lmem=0, smem=0, cmem=128
GPGPU-Sim PTX: removing ptxinfo using "rm -f _ptx_ywBaU2 _ptx2_RewsZs _ptx_ywBaU2info"
GPGPU-Sim PTX: loading globals with explicit initializers... 
GPGPU-Sim PTX: finished loading globals (0 bytes total).
GPGPU-Sim PTX: loading constants with explicit initializers...  done.
GPGPU-Sim PTX: cudaStreamCreate
123123
Launch code in main.cu:launching a new benchmark, appID = (null)
Registering index 0 as appID 787979
Virtual memory stats for ID 787979
2097152 non-continuous bytes used / 2097152 continuous bytes used
Physical memory stats
0 reserved regions (-nan% utilized)
0 compacted regions (-nan% utilized)
0 total pages freed / 512 total pages allocated
1 huge pages / 1 eligible regions
malloc returning pointer 0x8000000080000000
translate test for VA 0x8000000080000000(appID 787979): 0
Initializing GPGPU-sim performance simulator
Initializing GPGPU-sim
GPGPU-sim INIT routine: Creating app 0, app name = stream0.txt
Creating app for appID 787979
Done initializing memory stats in GPGPU-sim. Initializing shader stats
Done initializing shader stat. Initializing shared TLB
Initializing Shared TLB
Initializing promoted page list inside the shared TLB for appID = 787979
Setting L2 TLB for the MMU at address = 74017940
Done initializing shared TLB
Virtual memory stats for ID 787979
4194304 non-continuous bytes used / 4194304 continuous bytes used
Physical memory stats
0 reserved regions (-nan% utilized)
0 compacted regions (-nan% utilized)
0 total pages freed / 1024 total pages allocated
2 huge pages / 2 eligible regions
malloc returning pointer 0x8000000080200000
translate test for VA 0x8000000080200000(appID 787979): 0x200000
Initializing Zero level TLB
Assigned Shared TLB at 74017940
Setting L1 TLB pointer for the shared TLB for SM 0
Initializing Zero level TLB
Assigned Shared TLB at 74017940
Setting L1 TLB pointer for the shared TLB for SM 1
Initializing Zero level TLB
Assigned Shared TLB at 74017940
Setting L1 TLB pointer for the shared TLB for SM 2
Initializing Zero level TLB
Assigned Shared TLB at 74017940
Setting L1 TLB pointer for the shared TLB for SM 3
Initializing Zero level TLB
Assigned Shared TLB at 74017940
Setting L1 TLB pointer for the shared TLB for SM 4
Setting DRAM interface in the MMU for channel id 0
Setting DRAM interface in the MMU for channel id 1
GPGPU-Sim uArch: interconnect node map (shaderID+MemID to icntID)
GPGPU-Sim uArch: Memory nodes ID start from index: 5
GPGPU-Sim uArch:    0   1
GPGPU-Sim uArch:    2   3
GPGPU-Sim uArch:    4   5
GPGPU-Sim uArch:    6
GPGPU-Sim uArch: interconnect node reverse map (icntID to shaderID+MemID)
GPGPU-Sim uArch: Memory nodes start from ID: 5
GPGPU-Sim uArch:    0   1
GPGPU-Sim uArch:    2   3
GPGPU-Sim uArch:    4   5
GPGPU-Sim uArch:    6
Setting the MMU object as ready
GPGPU-Sim uArch: performance model initialization complete.

GPGPU-Sim PTX: cudaLaunch for 0x0x44b178 (mode=performance simulation) on stream 0
GPGPU-Sim PTX: pushing kernel '_Z14GPU_FFT_GlobaliP6float2S0_i' to stream 0, gridDim= (1024,1,1) blockDim = (128,1,1) 

GPGPU-Sim PTX: cudaLaunch for 0x0x44b178 (mode=performance simulation) on stream 0
kernel '_Z14GPU_FFT_GlobaliP6float2S0_i' transfer to GPU hardware scheduler
Launching GPGPU-sim for kernel _Z14GPU_FFT_GlobaliP6float2S0_i 
GPGPU-sim: Launching Kernel _Z14GPU_FFT_GlobaliP6float2S0_i : n = 0. Running kernel size = 8GPGPU-Sim PTX: pushing kernel '_Z14GPU_FFT_GlobaliP6float2S0_i' to stream 0, gridDim= (1024,1,1) blockDim = (128,1,1) 

GPGPU-Sim PTX: cudaLaunch for 0x0x44b178 (mode=performance simulation) on stream 0
Resetting epoch statistics at cycle 0
GPGPU-Sim PTX: pushing kernel '_Z14GPU_FFT_GlobaliP6float2S0_i' to stream 0, gridDim= (1024,1,1) blockDim = (128,1,1) 

GPGPU-Sim PTX: cudaLaunch for 0x0x44b178 (mode=performance simulation) on stream 0
GPGPU-Sim PTX: pushing kernel '_Z14GPU_FFT_GlobaliP6float2S0_i' to stream 0, gridDim= (1024,1,1) blockDim = (128,1,1) 

GPGPU-Sim PTX: cudaLaunch for 0x0x44b178 (mode=performance simulation) on stream 0
Resetting epoch statistics at cycle 0
GPGPU-Sim PTX: pushing kernel '_Z14GPU_FFT_GlobaliP6float2S0_i' to stream 0, gridDim= (1024,1,1) blockDim = (128,1,1) 

GPGPU-Sim PTX: cudaLaunch for 0x0x44b178 (mode=performance simulation) on stream 0
Resetting epoch statistics at cycle 0
GPGPU-Sim PTX: pushing kernel '_Z14GPU_FFT_GlobaliP6float2S0_i' to stream 0, gridDim= (1024,1,1) blockDim = (128,1,1) 

GPGPU-Sim PTX: cudaLaunch for 0x0x44b178 (mode=performance simulation) on stream 0
Resetting epoch statistics at cycle 0
GPGPU-Sim PTX: pushing kernel '_Z14GPU_FFT_GlobaliP6float2S0_i' to stream 0, gridDim= (1024,1,1) blockDim = (128,1,1) 

GPGPU-Sim PTX: cudaLaunch for 0x0x44b178 (mode=performance simulation) on stream 0
Resetting epoch statistics at cycle 0
GPGPU-Sim uArch: Shader 0 bind to kernel 1 '_Z14GPU_FFT_GlobaliP6float2S0_i'
GPGPU-Sim PTX: pushing kernel '_Z14GPU_FFT_GlobaliP6float2S0_i' to stream 0, gridDim= (1024,1,1) blockDim = (128,1,1) 
I am out from fft kernel launch
IO:      0.000564
GPU:     0.009863
Copy:    0.031351
Compute: 0.000000
Launch code in main.cu:launching a new benchmark, appID = (null)
GPGPU-Sim uArch: Shader:  0, cta: 0 initialized @(1,0), ACTIVE=1, KERNEL=1, STREAM=0
GPGPU-Sim uArch: Shader 1 bind to kernel 1 '_Z14GPU_FFT_GlobaliP6float2S0_i'
GPGPU-Sim uArch: Shader:  1, cta: 0 initialized @(1,0), ACTIVE=1, KERNEL=1, STREAM=0
GPGPU-Sim uArch: Shader 2 bind to kernel 1 '_Z14GPU_FFT_GlobaliP6float2S0_i'
GPGPU-Sim uArch: Shader:  2, cta: 0 initialized @(1,0), ACTIVE=1, KERNEL=1, STREAM=0
GPGPU-Sim uArch: Shader 3 bind to kernel 1 '_Z14GPU_FFT_GlobaliP6float2S0_i'
GPGPU-Sim uArch: Shader:  3, cta: 0 initialized @(1,0), ACTIVE=1, KERNEL=1, STREAM=0
GPGPU-Sim uArch: Shader 4 bind to kernel 1 '_Z14GPU_FFT_GlobaliP6float2S0_i'
GPGPU-Sim uArch: Shader:  4, cta: 0 initialized @(1,0), ACTIVE=1, KERNEL=1, STREAM=0
GPGPU-Sim uArch: Shader:  0, cta: 1 initialized @(2,0), ACTIVE=2, KERNEL=1, STREAM=0
GPGPU-Sim uArch: Shader:  1, cta: 1 initialized @(2,0), ACTIVE=2, KERNEL=1, STREAM=0
GPGPU-Sim uArch: Shader:  2, cta: 1 initialized @(2,0), ACTIVE=2, KERNEL=1, STREAM=0
GPGPU-Sim uArch: Shader:  3, cta: 1 initialized @(2,0), ACTIVE=2, KERNEL=1, STREAM=0
GPGPU-Sim uArch: Shader:  4, cta: 1 initialized @(2,0), ACTIVE=2, KERNEL=1, STREAM=0
GPGPU-Sim uArch: Shader:  0, cta: 2 initialized @(3,0), ACTIVE=3, KERNEL=1, STREAM=0
GPGPU-Sim uArch: Shader:  1, cta: 2 initialized @(3,0), ACTIVE=3, KERNEL=1, STREAM=0
GPGPU-Sim uArch: Shader:  2, cta: 2 initialized @(3,0), ACTIVE=3, KERNEL=1, STREAM=0
GPGPU-Sim uArch: Shader:  3, cta: 2 initialized @(3,0), ACTIVE=3, KERNEL=1, STREAM=0
GPGPU-Sim uArch: Shader:  4, cta: 2 initialized @(3,0), ACTIVE=3, KERNEL=1, STREAM=0
GPGPU-Sim uArch: Shader:  0, cta: 3 initialized @(4,0), ACTIVE=4, KERNEL=1, STREAM=0
GPGPU-Sim uArch: Shader:  1, cta: 3 initialized @(4,0), ACTIVE=4, KERNEL=1, STREAM=0
GPGPU-Sim uArch: Shader:  2, cta: 3 initialized @(4,0), ACTIVE=4, KERNEL=1, STREAM=0
GPGPU-Sim uArch: Shader:  3, cta: 3 initialized @(4,0), ACTIVE=4, KERNEL=1, STREAM=0
GPGPU-Sim uArch: Shader:  4, cta: 3 initialized @(4,0), ACTIVE=4, KERNEL=1, STREAM=0
GPGPU-Sim uArch: Shader:  0, cta: 4 initialized @(5,0), ACTIVE=5, KERNEL=1, STREAM=0
GPGPU-Sim uArch: Shader:  1, cta: 4 initialized @(5,0), ACTIVE=5, KERNEL=1, STREAM=0
GPGPU-Sim uArch: Shader:  2, cta: 4 initialized @(5,0), ACTIVE=5, KERNEL=1, STREAM=0
GPGPU-Sim uArch: Shader:  3, cta: 4 initialized @(5,0), ACTIVE=5, KERNEL=1, STREAM=0
GPGPU-Sim uArch: Shader:  4, cta: 4 initialized @(5,0), ACTIVE=5, KERNEL=1, STREAM=0
GPGPU-Sim uArch: Shader:  0, cta: 5 initialized @(6,0), ACTIVE=6, KERNEL=1, STREAM=0
GPGPU-Sim uArch: Shader:  1, cta: 5 initialized @(6,0), ACTIVE=6, KERNEL=1, STREAM=0
GPGPU-Sim uArch: Shader:  2, cta: 5 initialized @(6,0), ACTIVE=6, KERNEL=1, STREAM=0
GPGPU-Sim uArch: Shader:  3, cta: 5 initialized @(6,0), ACTIVE=6, KERNEL=1, STREAM=0
GPGPU-Sim uArch: Shader:  4, cta: 5 initialized @(6,0), ACTIVE=6, KERNEL=1, STREAM=0
GPGPU-Sim uArch: Shader:  0, cta: 6 initialized @(7,0), ACTIVE=7, KERNEL=1, STREAM=0
GPGPU-Sim uArch: Shader:  1, cta: 6 initialized @(7,0), ACTIVE=7, KERNEL=1, STREAM=0
GPGPU-Sim uArch: Shader:  2, cta: 6 initialized @(7,0), ACTIVE=7, KERNEL=1, STREAM=0
GPGPU-Sim uArch: Shader:  3, cta: 6 initialized @(7,0), ACTIVE=7, KERNEL=1, STREAM=0
GPGPU-Sim uArch: Shader:  4, cta: 6 initialized @(7,0), ACTIVE=7, KERNEL=1, STREAM=0
GPGPU-Sim uArch: Shader:  0, cta: 7 initialized @(8,0), ACTIVE=8, KERNEL=1, STREAM=0
GPGPU-Sim uArch: Shader:  1, cta: 7 initialized @(8,0), ACTIVE=8, KERNEL=1, STREAM=0
GPGPU-Sim uArch: Shader:  2, cta: 7 initialized @(8,0), ACTIVE=8, KERNEL=1, STREAM=0
GPGPU-Sim uArch: Shader:  3, cta: 7 initialized @(8,0), ACTIVE=8, KERNEL=1, STREAM=0
GPGPU-Sim uArch: Shader:  4, cta: 7 initialized @(8,0), ACTIVE=8, KERNEL=1, STREAM=0
